# created with PyMOL 3.0.0
@<TRIPOS>MOLECULE
complex
62 66 1                 
SMALL
USER_CHARGES
@<TRIPOS>ATOM
1	  C1	26.022	5.127	1.984	C.3	1	QL7501	0.000	
2	  C2	26.991	4.167	1.260	C.3	1	QL7501	0.000	
3	  C3	26.350	2.776	1.071	C.3	1	QL7501	0.000	
4	  C4	27.527	4.763	-0.071	C.3	1	QL7501	0.000	
5	  C6	26.450	4.984	-1.153	C.3	1	QL7501	0.000	
6	  N7	26.979	5.596	-2.374	N.2	1	QL7501	0.000	
7	  C8	27.734	4.835	-3.362	C.2	1	QL7501	0.000	
8	  C9	28.164	5.906	-4.316	C.2	1	QL7501	0.000	
9	 C10	28.950	5.845	-5.462	C.2	1	QL7501	0.000	
10	 C11	29.225	7.015	-6.200	C.2	1	QL7501	0.000	
11	 C12	28.664	8.248	-5.780	C.2	1	QL7501	0.000	
12	 C13	27.912	8.287	-4.594	C.2	1	QL7501	0.000	
13	 C14	27.665	7.116	-3.886	C.2	1	QL7501	0.000	
14	 C15	26.917	6.928	-2.608	C.2	1	QL7501	0.000	
15	 O16	26.378	7.789	-1.912	O.2	1	QL7501	0.000	
16	 N17	28.956	9.438	-6.443	N.pl3	1	QL7501	0.000	
17	 C18	27.837	10.337	-6.778	C.3	1	QL7501	0.000	
18	 C19	28.283	11.490	-7.702	C.3	1	QL7501	0.000	
19	 O20	29.304	12.242	-7.062	O.3	1	QL7501	0.000	
20	 C21	30.435	11.442	-6.740	C.3	1	QL7501	0.000	
21	 C22	30.010	10.265	-5.831	C.3	1	QL7501	0.000	
22	 N23	30.050	7.023	-7.351	N.pl3	1	QL7501	0.000	
23	 C24	30.639	6.001	-8.007	C.2	1	QL7501	0.000	
24	 O25	30.506	4.804	-7.752	O.2	1	QL7501	0.000	
25	 C26	31.506	6.427	-9.072	C.2	1	QL7501	0.000	
26	 C27	32.447	5.602	-9.704	C.2	1	QL7501	0.000	
27	 N28	33.176	6.188	-10.629	N.2	1	QL7501	0.000	
28	 N29	32.698	7.445	-10.686	N.2	1	QL7501	0.000	
29	 C30	31.654	7.663	-9.770	C.2	1	QL7501	0.000	
30	 N31	31.056	8.863	-9.679	N.2	1	QL7501	0.000	
31	 C32	31.517	9.854	-10.494	C.2	1	QL7501	0.000	
32	 C33	32.551	9.689	-11.417	C.2	1	QL7501	0.000	
33	 C34	33.156	8.440	-11.509	C.2	1	QL7501	0.000	
34	 O36	28.098	3.981	2.126	O.3	1	QL7501	0.000	
35	 F35	28.230	5.877	0.130	 F	1	QL7501	0.000	
36	HN23	30.238	7.947	-7.713	 H	1	QL7501	0.000	
37	HC10	29.341	4.882	-5.743	 H	1	QL7501	0.000	
38	HC13	27.527	9.228	-4.225	 H	1	QL7501	0.000	
39	HC27	32.615	4.564	-9.459	 H	1	QL7501	0.000	
40	HC32	31.035	10.816	-10.392	 H	1	QL7501	0.000	
41	HC33	32.878	10.510	-12.039	 H	1	QL7501	0.000	
42	HC34	33.967	8.205	-12.183	 H	1	QL7501	0.000	
43	 HC4	28.260	4.075	-0.488	 H	1	QL7501	0.000	
44	HO36	28.707	3.358	1.720	 H	1	QL7501	0.000	
45	H181	27.382	10.744	-5.874	 H	1	QL7501	0.000	
46	H182	27.061	9.760	-7.283	 H	1	QL7501	0.000	
47	H191	27.443	12.149	-7.918	 H	1	QL7501	0.000	
48	H192	28.641	11.109	-8.657	 H	1	QL7501	0.000	
49	H211	31.159	12.069	-6.221	 H	1	QL7501	0.000	
50	H212	30.923	11.084	-7.647	 H	1	QL7501	0.000	
51	H221	30.882	9.638	-5.641	 H	1	QL7501	0.000	
52	H222	29.680	10.637	-4.859	 H	1	QL7501	0.000	
53	H1_1	25.733	4.743	2.964	 H	1	QL7501	0.000	
54	H1_2	26.468	6.110	2.140	 H	1	QL7501	0.000	
55	H1_3	25.101	5.275	1.420	 H	1	QL7501	0.000	
56	H3_1	26.079	2.326	2.028	 H	1	QL7501	0.000	
57	H3_2	25.439	2.831	0.476	 H	1	QL7501	0.000	
58	H3_3	27.030	2.084	0.570	 H	1	QL7501	0.000	
59	H6_1	25.649	5.607	-0.751	 H	1	QL7501	0.000	
60	H6_2	25.990	4.033	-1.421	 H	1	QL7501	0.000	
61	H8_1	28.570	4.312	-2.897	 H	1	QL7501	0.000	
62	H8_2	27.096	4.085	-3.830	 H	1	QL7501	0.000	
@<TRIPOS>BOND
1 1 2 1
2 1 53 1
3 1 54 1
4 1 55 1
5 2 34 1
6 2 3 1
7 3 56 1
8 3 57 1
9 3 58 1
10 2 4 1
11 4 5 1
12 4 35 1
13 4 43 1
14 5 6 1
15 5 59 1
16 5 60 1
17 6 14 ar
18 6 7 ar
19 7 8 ar
20 7 61 1
21 7 62 1
22 8 9 ar
23 9 37 1
24 9 10 ar
25 10 11 ar
26 10 22 1
27 11 12 ar
28 11 16 1
29 12 38 1
30 8 13 ar
31 12 13 ar
32 13 14 ar
33 14 15 2
34 16 17 1
35 16 21 1
36 17 18 1
37 17 45 1
38 17 46 1
39 18 19 1
40 18 47 1
41 18 48 1
42 19 20 1
43 20 21 1
44 20 49 1
45 20 50 1
46 21 51 1
47 21 52 1
48 22 23 1
49 22 36 1
50 23 24 2
51 23 25 1
52 25 26 ar
53 25 29 ar
54 26 27 ar
55 26 39 1
56 27 28 ar
57 28 29 ar
58 28 33 ar
59 29 30 ar
60 30 31 ar
61 31 32 ar
62 31 40 1
63 32 33 ar
64 32 41 1
65 33 42 1
66 34 44 1
@<TRIPOS>SUBSTRUCTURE
1	QL7501	1	GROUP	1 A	QL7
