complex
  PyMOL3.0          3D                             0

 62 66  0  0  0  0  0  0  0  0999 V2000
   26.0220    5.1270    1.9840 C   0  0  0  0  0  0  0  0  0  0  0  0
   26.9910    4.1670    1.2600 C   0  0  0  0  0  0  0  0  0  0  0  0
   26.3500    2.7760    1.0710 C   0  0  0  0  0  0  0  0  0  0  0  0
   27.5270    4.7630   -0.0710 C   0  0  0  0  0  0  0  0  0  0  0  0
   26.4500    4.9840   -1.1530 C   0  0  0  0  0  0  0  0  0  0  0  0
   26.9790    5.5960   -2.3740 N   0  0  0  0  0  0  0  0  0  0  0  0
   27.7340    4.8350   -3.3620 C   0  0  0  0  0  0  0  0  0  0  0  0
   28.1640    5.9060   -4.3160 C   0  0  0  0  0  0  0  0  0  0  0  0
   28.9500    5.8450   -5.4620 C   0  0  0  0  0  0  0  0  0  0  0  0
   29.2250    7.0150   -6.2000 C   0  0  0  0  0  0  0  0  0  0  0  0
   28.6640    8.2480   -5.7800 C   0  0  0  0  0  0  0  0  0  0  0  0
   27.9120    8.2870   -4.5940 C   0  0  0  0  0  0  0  0  0  0  0  0
   27.6650    7.1160   -3.8860 C   0  0  0  0  0  0  0  0  0  0  0  0
   26.9170    6.9280   -2.6080 C   0  0  0  0  0  0  0  0  0  0  0  0
   26.3780    7.7890   -1.9120 O   0  0  0  0  0  0  0  0  0  0  0  0
   28.9560    9.4380   -6.4430 N   0  0  0  0  0  0  0  0  0  0  0  0
   27.8370   10.3370   -6.7780 C   0  0  0  0  0  0  0  0  0  0  0  0
   28.2830   11.4900   -7.7020 C   0  0  0  0  0  0  0  0  0  0  0  0
   29.3040   12.2420   -7.0620 O   0  0  0  0  0  0  0  0  0  0  0  0
   30.4350   11.4420   -6.7400 C   0  0  0  0  0  0  0  0  0  0  0  0
   30.0100   10.2650   -5.8310 C   0  0  0  0  0  0  0  0  0  0  0  0
   30.0500    7.0230   -7.3510 N   0  0  0  0  0  0  0  0  0  0  0  0
   30.6390    6.0010   -8.0070 C   0  0  0  0  0  0  0  0  0  0  0  0
   30.5060    4.8040   -7.7520 O   0  0  0  0  0  0  0  0  0  0  0  0
   31.5060    6.4270   -9.0720 C   0  0  0  0  0  0  0  0  0  0  0  0
   32.4470    5.6020   -9.7040 C   0  0  0  0  0  0  0  0  0  0  0  0
   33.1760    6.1880  -10.6290 N   0  0  0  0  0  0  0  0  0  0  0  0
   32.6980    7.4450  -10.6860 N   0  0  0  0  0  0  0  0  0  0  0  0
   31.6540    7.6630   -9.7700 C   0  0  0  0  0  0  0  0  0  0  0  0
   31.0560    8.8630   -9.6790 N   0  0  0  0  0  0  0  0  0  0  0  0
   31.5170    9.8540  -10.4940 C   0  0  0  0  0  0  0  0  0  0  0  0
   32.5510    9.6890  -11.4170 C   0  0  0  0  0  0  0  0  0  0  0  0
   33.1560    8.4400  -11.5090 C   0  0  0  0  0  0  0  0  0  0  0  0
   28.0980    3.9810    2.1260 O   0  0  0  0  0  0  0  0  0  0  0  0
   28.2300    5.8770    0.1300 F   0  0  0  0  0  0  0  0  0  0  0  0
   30.2380    7.9470   -7.7130 H   0  0  0  0  0  0  0  0  0  0  0  0
   29.3410    4.8820   -5.7430 H   0  0  0  0  0  0  0  0  0  0  0  0
   27.5270    9.2280   -4.2250 H   0  0  0  0  0  0  0  0  0  0  0  0
   32.6150    4.5640   -9.4590 H   0  0  0  0  0  0  0  0  0  0  0  0
   31.0350   10.8160  -10.3920 H   0  0  0  0  0  0  0  0  0  0  0  0
   32.8780   10.5100  -12.0390 H   0  0  0  0  0  0  0  0  0  0  0  0
   33.9670    8.2050  -12.1830 H   0  0  0  0  0  0  0  0  0  0  0  0
   28.2600    4.0750   -0.4880 H   0  0  0  0  0  0  0  0  0  0  0  0
   28.7070    3.3580    1.7200 H   0  0  0  0  0  0  0  0  0  0  0  0
   27.3820   10.7440   -5.8740 H   0  0  0  0  0  0  0  0  0  0  0  0
   27.0610    9.7600   -7.2830 H   0  0  0  0  0  0  0  0  0  0  0  0
   27.4430   12.1490   -7.9180 H   0  0  0  0  0  0  0  0  0  0  0  0
   28.6410   11.1090   -8.6570 H   0  0  0  0  0  0  0  0  0  0  0  0
   31.1590   12.0690   -6.2210 H   0  0  0  0  0  0  0  0  0  0  0  0
   30.9230   11.0840   -7.6470 H   0  0  0  0  0  0  0  0  0  0  0  0
   30.8820    9.6380   -5.6410 H   0  0  0  0  0  0  0  0  0  0  0  0
   29.6800   10.6370   -4.8590 H   0  0  0  0  0  0  0  0  0  0  0  0
   25.7330    4.7430    2.9640 H   0  0  0  0  0  0  0  0  0  0  0  0
   26.4680    6.1100    2.1400 H   0  0  0  0  0  0  0  0  0  0  0  0
   25.1010    5.2750    1.4200 H   0  0  0  0  0  0  0  0  0  0  0  0
   26.0790    2.3260    2.0280 H   0  0  0  0  0  0  0  0  0  0  0  0
   25.4390    2.8310    0.4760 H   0  0  0  0  0  0  0  0  0  0  0  0
   27.0300    2.0840    0.5700 H   0  0  0  0  0  0  0  0  0  0  0  0
   25.6490    5.6070   -0.7510 H   0  0  0  0  0  0  0  0  0  0  0  0
   25.9900    4.0330   -1.4210 H   0  0  0  0  0  0  0  0  0  0  0  0
   28.5700    4.3120   -2.8970 H   0  0  0  0  0  0  0  0  0  0  0  0
   27.0960    4.0850   -3.8300 H   0  0  0  0  0  0  0  0  0  0  0  0
  1  2  1  0  0  0  0
  1 53  1  0  0  0  0
  1 54  1  0  0  0  0
  1 55  1  0  0  0  0
  2 34  1  0  0  0  0
  2  3  1  0  0  0  0
  3 56  1  0  0  0  0
  3 57  1  0  0  0  0
  3 58  1  0  0  0  0
  2  4  1  0  0  0  0
  4  5  1  0  0  0  0
  4 35  1  0  0  0  0
  4 43  1  0  0  0  0
  5  6  1  0  0  0  0
  5 59  1  0  0  0  0
  5 60  1  0  0  0  0
  6 14  4  0  0  0  0
  6  7  4  0  0  0  0
  7  8  4  0  0  0  0
  7 61  1  0  0  0  0
  7 62  1  0  0  0  0
  8  9  4  0  0  0  0
  9 37  1  0  0  0  0
  9 10  4  0  0  0  0
 10 11  4  0  0  0  0
 10 22  1  0  0  0  0
 11 12  4  0  0  0  0
 11 16  1  0  0  0  0
 12 38  1  0  0  0  0
  8 13  4  0  0  0  0
 12 13  4  0  0  0  0
 13 14  4  0  0  0  0
 14 15  2  0  0  0  0
 16 17  1  0  0  0  0
 16 21  1  0  0  0  0
 17 18  1  0  0  0  0
 17 45  1  0  0  0  0
 17 46  1  0  0  0  0
 18 19  1  0  0  0  0
 18 47  1  0  0  0  0
 18 48  1  0  0  0  0
 19 20  1  0  0  0  0
 20 21  1  0  0  0  0
 20 49  1  0  0  0  0
 20 50  1  0  0  0  0
 21 51  1  0  0  0  0
 21 52  1  0  0  0  0
 22 23  1  0  0  0  0
 22 36  1  0  0  0  0
 23 24  2  0  0  0  0
 23 25  1  0  0  0  0
 25 26  4  0  0  0  0
 25 29  4  0  0  0  0
 26 27  4  0  0  0  0
 26 39  1  0  0  0  0
 27 28  4  0  0  0  0
 28 29  4  0  0  0  0
 28 33  4  0  0  0  0
 29 30  4  0  0  0  0
 30 31  4  0  0  0  0
 31 32  4  0  0  0  0
 31 40  1  0  0  0  0
 32 33  4  0  0  0  0
 32 41  1  0  0  0  0
 33 42  1  0  0  0  0
 34 44  1  0  0  0  0
M  END
>  <pdb_header>
HEADER    SIGNALING PROTEIN/INHIBITOR             12-NOV-19   6UYA
TITLE     CRYSTAL STRUCTURE OF COMPOUND 19 BOUND TO IRAK4
EXPDTA    X-RAY DIFFRACTION
REMARK   2 RESOLUTION.    1.74 ANGSTROMS
REMARK   3  R VALUE : 0.181000
REMARK   3  FREE R VALUE : 0.207000
REMARK   4 6UYA COMPLIES WITH FORMAT V. 3.30,
REMARK 200  TEMPERATURE           (KELVIN) : 93.00
REMARK 200  PH                             : NULL
REMARK 350 BIOMOLECULE: 1
REMARK 350 APPLY THE FOLLOWING TO CHAINS: A, B, C, D
REMARK 350   BIOMT1  1   1.000000 0.000000 0.000000   0.000000
REMARK 350   BIOMT2  1   0.000000 1.000000 0.000000   0.000000
REMARK 350   BIOMT3  1   0.000000 0.000000 1.000000   0.000000
REMARK 888
REMARK 888 WRITTEN BY MAESTRO (A PRODUCT OF SCHRODINGER, LLC)
HET    QL7  A 501      62
HETNAM     QL7 N-{2-[(2R)-2-FLUORO-3-HYDROXY-3-METHYLBUTYL]-6- (MORPHO
HETNAM   2 QL7 LIN-4-YL)-1-OXO-2,3-DIHYDRO-1H-ISOINDOL-5- YL}PYRAZOLO[
HETNAM   3 QL7 1,5-A]PYRIMIDINE-3-CARBOXAMIDE
FORMUL   1  QL7    C24 H27 F N6 O4
CRYST1  140.882  140.175   87.559  90.00 123.20  90.00 C 1 2 1      16


$$$$
