# created with PyMOL 3.0.0
@<TRIPOS>MOLECULE
complex
67 72 1                 
SMALL
USER_CHARGES
@<TRIPOS>ATOM
1	   N	27.901	4.988	-3.159	N.2	1	LRS502	0.000	
2	   C	28.098	3.549	-3.297	C.3	1	LRS502	0.000	
3	   O	26.401	4.340	1.810	O.3	1	LRS502	0.000	
4	  C1	28.351	5.932	-4.082	C.2	1	LRS502	0.000	
5	  N1	27.308	6.991	-2.409	N.pl3	1	LRS502	0.000	
6	  O1	30.861	12.982	-9.072	O.3	1	LRS502	0.000	
7	  C2	29.073	5.789	-5.271	C.2	1	LRS502	0.000	
8	  N2	26.892	5.120	-0.898	N.pl3	1	LRS502	0.000	
9	  O2	30.596	4.694	-7.557	O.2	1	LRS502	0.000	
10	  C3	29.390	6.957	-5.990	C.2	1	LRS502	0.000	
11	  N3	29.283	9.380	-6.228	N.pl3	1	LRS502	0.000	
12	  C4	28.954	8.223	-5.533	C.2	1	LRS502	0.000	
13	  N4	30.172	6.924	-7.175	N.pl3	1	LRS502	0.000	
14	  C5	28.236	8.353	-4.332	C.2	1	LRS502	0.000	
15	  N5	33.239	6.002	-10.492	N.2	1	LRS502	0.000	
16	  C6	27.952	7.191	-3.620	C.2	1	LRS502	0.000	
17	  N6	32.812	7.277	-10.527	N.2	1	LRS502	0.000	
18	  C7	27.342	5.658	-2.079	C.cat	1	LRS502	0.000	
19	  N7	31.247	8.747	-9.476	N.2	1	LRS502	0.000	
20	  C8	27.655	4.034	-0.230	C.3	1	LRS502	0.000	
21	  C9	27.713	4.189	1.300	C.3	1	LRS502	0.000	
22	 C10	25.820	5.561	1.381	C.3	1	LRS502	0.000	
23	 C11	25.731	5.689	-0.160	C.3	1	LRS502	0.000	
24	 C12	30.304	10.227	-5.589	C.3	1	LRS502	0.000	
25	 C13	30.831	11.326	-6.529	C.3	1	LRS502	0.000	
26	 C14	29.698	12.234	-7.023	C.3	1	LRS502	0.000	
27	 C15	28.692	11.308	-7.726	C.3	1	LRS502	0.000	
28	 C16	28.186	10.211	-6.761	C.3	1	LRS502	0.000	
29	 C17	30.209	13.408	-7.891	C.3	1	LRS502	0.000	
30	 C18	30.740	5.887	-7.827	C.2	1	LRS502	0.000	
31	 C19	31.603	6.289	-8.905	C.2	1	LRS502	0.000	
32	 C20	32.505	5.436	-9.559	C.2	1	LRS502	0.000	
33	 C21	31.791	7.525	-9.593	C.2	1	LRS502	0.000	
34	 C22	31.733	9.726	-10.289	C.2	1	LRS502	0.000	
35	 C23	32.743	9.531	-11.231	C.2	1	LRS502	0.000	
36	 C24	33.298	8.261	-11.344	C.2	1	LRS502	0.000	
37	 HN1	26.908	7.696	-1.805	 H	1	LRS502	0.000	
38	 HN4	30.372	7.841	-7.552	 H	1	LRS502	0.000	
39	HC14	29.201	12.657	-6.147	 H	1	LRS502	0.000	
40	 HC2	29.380	4.807	-5.586	 H	1	LRS502	0.000	
41	HC20	32.636	4.391	-9.325	 H	1	LRS502	0.000	
42	HC22	31.289	10.703	-10.173	 H	1	LRS502	0.000	
43	HC23	33.089	10.344	-11.852	 H	1	LRS502	0.000	
44	HC24	34.088	8.003	-12.035	 H	1	LRS502	0.000	
45	 HC5	27.932	9.322	-3.962	 H	1	LRS502	0.000	
46	 HO1	31.336	13.726	-9.453	 H	1	LRS502	0.000	
47	1HXT	28.133	3.277	-4.351	 H	1	LRS502	0.000	
48	2HXT	29.032	3.268	-2.819	 H	1	LRS502	0.000	
49	3HXT	27.270	3.010	-2.839	 H	1	LRS502	0.000	
50	H101	24.814	5.601	1.796	 H	1	LRS502	0.000	
51	H102	26.357	6.401	1.818	 H	1	LRS502	0.000	
52	H111	25.741	6.764	-0.342	 H	1	LRS502	0.000	
53	H112	24.805	5.306	-0.589	 H	1	LRS502	0.000	
54	H121	29.896	10.668	-4.677	 H	1	LRS502	0.000	
55	H122	31.142	9.595	-5.289	 H	1	LRS502	0.000	
56	H131	31.552	11.931	-5.990	 H	1	LRS502	0.000	
57	H132	31.399	10.895	-7.355	 H	1	LRS502	0.000	
58	H151	29.126	10.860	-8.618	 H	1	LRS502	0.000	
59	H152	27.855	11.897	-8.101	 H	1	LRS502	0.000	
60	H161	27.643	10.661	-5.929	 H	1	LRS502	0.000	
61	H162	27.481	9.569	-7.291	 H	1	LRS502	0.000	
62	H171	30.902	14.024	-7.315	 H	1	LRS502	0.000	
63	H172	29.384	14.059	-8.169	 H	1	LRS502	0.000	
64	H8_1	27.289	3.065	-0.568	 H	1	LRS502	0.000	
65	H8_2	28.692	4.145	-0.549	 H	1	LRS502	0.000	
66	H9_1	28.350	5.025	1.598	 H	1	LRS502	0.000	
67	H9_2	28.156	3.296	1.743	 H	1	LRS502	0.000	
@<TRIPOS>BOND
1 1 2 1
2 2 47 1
3 2 48 1
4 2 49 1
5 1 4 ar
6 5 37 1
7 6 46 1
8 4 7 ar
9 7 40 1
10 9 30 2
11 7 10 ar
12 10 13 1
13 11 28 1
14 10 12 ar
15 11 12 1
16 12 14 ar
17 13 38 1
18 14 16 ar
19 14 45 1
20 15 32 ar
21 4 16 ar
22 5 16 ar
23 15 17 ar
24 1 18 ar
25 5 18 ar
26 8 18 1
27 19 34 ar
28 8 20 1
29 20 21 1
30 20 64 1
31 20 65 1
32 3 21 1
33 21 66 1
34 21 67 1
35 3 22 1
36 22 50 1
37 22 51 1
38 8 23 1
39 22 23 1
40 23 52 1
41 23 53 1
42 11 24 1
43 24 25 1
44 24 54 1
45 24 55 1
46 25 56 1
47 25 57 1
48 25 26 1
49 26 27 1
50 26 29 1
51 26 39 1
52 27 58 1
53 27 59 1
54 27 28 1
55 28 60 1
56 28 61 1
57 6 29 1
58 29 62 1
59 29 63 1
60 13 30 1
61 30 31 1
62 31 32 ar
63 31 33 ar
64 32 41 1
65 17 33 ar
66 19 33 ar
67 34 35 ar
68 34 42 1
69 35 36 ar
70 35 43 1
71 17 36 ar
72 36 44 1
@<TRIPOS>SUBSTRUCTURE
1	LRS502	1	GROUP	1 A	LRS
