complex
  PyMOL3.0          3D                             0

 67 72  0  0  0  0  0  0  0  0999 V2000
   27.9010    4.9880   -3.1590 N   0  0  0  0  0  0  0  0  0  0  0  0
   28.0980    3.5490   -3.2970 C   0  0  0  0  0  0  0  0  0  0  0  0
   26.4010    4.3400    1.8100 O   0  0  0  0  0  0  0  0  0  0  0  0
   28.3510    5.9320   -4.0820 C   0  0  0  0  0  0  0  0  0  0  0  0
   27.3080    6.9910   -2.4090 N   0  3  0  0  0  0  0  0  0  0  0  0
   30.8610   12.9820   -9.0720 O   0  0  0  0  0  0  0  0  0  0  0  0
   29.0730    5.7890   -5.2710 C   0  0  0  0  0  0  0  0  0  0  0  0
   26.8920    5.1200   -0.8980 N   0  0  0  0  0  0  0  0  0  0  0  0
   30.5960    4.6940   -7.5570 O   0  0  0  0  0  0  0  0  0  0  0  0
   29.3900    6.9570   -5.9900 C   0  0  0  0  0  0  0  0  0  0  0  0
   29.2830    9.3800   -6.2280 N   0  0  0  0  0  0  0  0  0  0  0  0
   28.9540    8.2230   -5.5330 C   0  0  0  0  0  0  0  0  0  0  0  0
   30.1720    6.9240   -7.1750 N   0  0  0  0  0  0  0  0  0  0  0  0
   28.2360    8.3530   -4.3320 C   0  0  0  0  0  0  0  0  0  0  0  0
   33.2390    6.0020  -10.4920 N   0  0  0  0  0  0  0  0  0  0  0  0
   27.9520    7.1910   -3.6200 C   0  0  0  0  0  0  0  0  0  0  0  0
   32.8120    7.2770  -10.5270 N   0  0  0  0  0  0  0  0  0  0  0  0
   27.3420    5.6580   -2.0790 C   0  0  0  0  0  0  0  0  0  0  0  0
   31.2470    8.7470   -9.4760 N   0  0  0  0  0  0  0  0  0  0  0  0
   27.6550    4.0340   -0.2300 C   0  0  0  0  0  0  0  0  0  0  0  0
   27.7130    4.1890    1.3000 C   0  0  0  0  0  0  0  0  0  0  0  0
   25.8200    5.5610    1.3810 C   0  0  0  0  0  0  0  0  0  0  0  0
   25.7310    5.6890   -0.1600 C   0  0  0  0  0  0  0  0  0  0  0  0
   30.3040   10.2270   -5.5890 C   0  0  0  0  0  0  0  0  0  0  0  0
   30.8310   11.3260   -6.5290 C   0  0  0  0  0  0  0  0  0  0  0  0
   29.6980   12.2340   -7.0230 C   0  0  0  0  0  0  0  0  0  0  0  0
   28.6920   11.3080   -7.7260 C   0  0  0  0  0  0  0  0  0  0  0  0
   28.1860   10.2110   -6.7610 C   0  0  0  0  0  0  0  0  0  0  0  0
   30.2090   13.4080   -7.8910 C   0  0  0  0  0  0  0  0  0  0  0  0
   30.7400    5.8870   -7.8270 C   0  0  0  0  0  0  0  0  0  0  0  0
   31.6030    6.2890   -8.9050 C   0  0  0  0  0  0  0  0  0  0  0  0
   32.5050    5.4360   -9.5590 C   0  0  0  0  0  0  0  0  0  0  0  0
   31.7910    7.5250   -9.5930 C   0  0  0  0  0  0  0  0  0  0  0  0
   31.7330    9.7260  -10.2890 C   0  0  0  0  0  0  0  0  0  0  0  0
   32.7430    9.5310  -11.2310 C   0  0  0  0  0  0  0  0  0  0  0  0
   33.2980    8.2610  -11.3440 C   0  0  0  0  0  0  0  0  0  0  0  0
   26.9080    7.6960   -1.8050 H   0  0  0  0  0  0  0  0  0  0  0  0
   30.3720    7.8410   -7.5520 H   0  0  0  0  0  0  0  0  0  0  0  0
   29.2010   12.6570   -6.1470 H   0  0  0  0  0  0  0  0  0  0  0  0
   29.3800    4.8070   -5.5860 H   0  0  0  0  0  0  0  0  0  0  0  0
   32.6360    4.3910   -9.3250 H   0  0  0  0  0  0  0  0  0  0  0  0
   31.2890   10.7030  -10.1730 H   0  0  0  0  0  0  0  0  0  0  0  0
   33.0890   10.3440  -11.8520 H   0  0  0  0  0  0  0  0  0  0  0  0
   34.0880    8.0030  -12.0350 H   0  0  0  0  0  0  0  0  0  0  0  0
   27.9320    9.3220   -3.9620 H   0  0  0  0  0  0  0  0  0  0  0  0
   31.3360   13.7260   -9.4530 H   0  0  0  0  0  0  0  0  0  0  0  0
   28.1330    3.2770   -4.3510 H   0  0  0  0  0  0  0  0  0  0  0  0
   29.0320    3.2680   -2.8190 H   0  0  0  0  0  0  0  0  0  0  0  0
   27.2700    3.0100   -2.8390 H   0  0  0  0  0  0  0  0  0  0  0  0
   24.8140    5.6010    1.7960 H   0  0  0  0  0  0  0  0  0  0  0  0
   26.3570    6.4010    1.8180 H   0  0  0  0  0  0  0  0  0  0  0  0
   25.7410    6.7640   -0.3420 H   0  0  0  0  0  0  0  0  0  0  0  0
   24.8050    5.3060   -0.5890 H   0  0  0  0  0  0  0  0  0  0  0  0
   29.8960   10.6680   -4.6770 H   0  0  0  0  0  0  0  0  0  0  0  0
   31.1420    9.5950   -5.2890 H   0  0  0  0  0  0  0  0  0  0  0  0
   31.5520   11.9310   -5.9900 H   0  0  0  0  0  0  0  0  0  0  0  0
   31.3990   10.8950   -7.3550 H   0  0  0  0  0  0  0  0  0  0  0  0
   29.1260   10.8600   -8.6180 H   0  0  0  0  0  0  0  0  0  0  0  0
   27.8550   11.8970   -8.1010 H   0  0  0  0  0  0  0  0  0  0  0  0
   27.6430   10.6610   -5.9290 H   0  0  0  0  0  0  0  0  0  0  0  0
   27.4810    9.5690   -7.2910 H   0  0  0  0  0  0  0  0  0  0  0  0
   30.9020   14.0240   -7.3150 H   0  0  0  0  0  0  0  0  0  0  0  0
   29.3840   14.0590   -8.1690 H   0  0  0  0  0  0  0  0  0  0  0  0
   27.2890    3.0650   -0.5680 H   0  0  0  0  0  0  0  0  0  0  0  0
   28.6920    4.1450   -0.5490 H   0  0  0  0  0  0  0  0  0  0  0  0
   28.3500    5.0250    1.5980 H   0  0  0  0  0  0  0  0  0  0  0  0
   28.1560    3.2960    1.7430 H   0  0  0  0  0  0  0  0  0  0  0  0
  1  2  1  0  0  0  0
  2 47  1  0  0  0  0
  2 48  1  0  0  0  0
  2 49  1  0  0  0  0
  1  4  4  0  0  0  0
  5 37  1  0  0  0  0
  6 46  1  0  0  0  0
  4  7  4  0  0  0  0
  7 40  1  0  0  0  0
  9 30  2  0  0  0  0
  7 10  4  0  0  0  0
 10 13  1  0  0  0  0
 11 28  1  0  0  0  0
 10 12  4  0  0  0  0
 11 12  1  0  0  0  0
 12 14  4  0  0  0  0
 13 38  1  0  0  0  0
 14 16  4  0  0  0  0
 14 45  1  0  0  0  0
 15 32  4  0  0  0  0
  4 16  4  0  0  0  0
  5 16  4  0  0  0  0
 15 17  4  0  0  0  0
  1 18  4  0  0  0  0
  5 18  4  0  0  0  0
  8 18  1  0  0  0  0
 19 34  4  0  0  0  0
  8 20  1  0  0  0  0
 20 21  1  0  0  0  0
 20 64  1  0  0  0  0
 20 65  1  0  0  0  0
  3 21  1  0  0  0  0
 21 66  1  0  0  0  0
 21 67  1  0  0  0  0
  3 22  1  0  0  0  0
 22 50  1  0  0  0  0
 22 51  1  0  0  0  0
  8 23  1  0  0  0  0
 22 23  1  0  0  0  0
 23 52  1  0  0  0  0
 23 53  1  0  0  0  0
 11 24  1  0  0  0  0
 24 25  1  0  0  0  0
 24 54  1  0  0  0  0
 24 55  1  0  0  0  0
 25 56  1  0  0  0  0
 25 57  1  0  0  0  0
 25 26  1  0  0  0  0
 26 27  1  0  0  0  0
 26 29  1  0  0  0  0
 26 39  1  0  0  0  0
 27 58  1  0  0  0  0
 27 59  1  0  0  0  0
 27 28  1  0  0  0  0
 28 60  1  0  0  0  0
 28 61  1  0  0  0  0
  6 29  1  0  0  0  0
 29 62  1  0  0  0  0
 29 63  1  0  0  0  0
 13 30  1  0  0  0  0
 30 31  1  0  0  0  0
 31 32  4  0  0  0  0
 31 33  4  0  0  0  0
 32 41  1  0  0  0  0
 17 33  4  0  0  0  0
 19 33  4  0  0  0  0
 34 35  4  0  0  0  0
 34 42  1  0  0  0  0
 35 36  4  0  0  0  0
 35 43  1  0  0  0  0
 17 36  4  0  0  0  0
 36 44  1  0  0  0  0
M  END
>  <pdb_header>
HEADER    IMMUNE SYSTEM                           13-MAR-19   6O94
TITLE     STRUCTURE OF THE IRAK4 KINASE DOMAIN WITH COMPOUND 17
EXPDTA    X-RAY DIFFRACTION
REMARK   2 RESOLUTION.    1.98 ANGSTROMS
REMARK   3  R VALUE : 0.183000
REMARK   3  FREE R VALUE : 0.215000
REMARK   4 6O94 COMPLIES WITH FORMAT V. 3.30,
REMARK 200  TEMPERATURE           (KELVIN) : 100.00
REMARK 200  PH                             : NULL
REMARK 350 BIOMOLECULE: 1
REMARK 350 APPLY THE FOLLOWING TO CHAINS: A
REMARK 350   BIOMT1  1   1.000000 0.000000 0.000000   0.000000
REMARK 350   BIOMT2  1   0.000000 1.000000 0.000000   0.000000
REMARK 350   BIOMT3  1   0.000000 0.000000 1.000000   0.000000
REMARK 350 BIOMOLECULE: 2
REMARK 350 APPLY THE FOLLOWING TO CHAINS: B
REMARK 350   BIOMT1  1   1.000000 0.000000 0.000000   0.000000
REMARK 350   BIOMT2  1   0.000000 1.000000 0.000000   0.000000
REMARK 350   BIOMT3  1   0.000000 0.000000 1.000000   0.000000
REMARK 350 BIOMOLECULE: 3
REMARK 350 APPLY THE FOLLOWING TO CHAINS: C
REMARK 350   BIOMT1  1   1.000000 0.000000 0.000000   0.000000
REMARK 350   BIOMT2  1   0.000000 1.000000 0.000000   0.000000
REMARK 350   BIOMT3  1   0.000000 0.000000 1.000000   0.000000
REMARK 350 BIOMOLECULE: 4
REMARK 350 APPLY THE FOLLOWING TO CHAINS: D
REMARK 350   BIOMT1  1   1.000000 0.000000 0.000000   0.000000
REMARK 350   BIOMT2  1   0.000000 1.000000 0.000000   0.000000
REMARK 350   BIOMT3  1   0.000000 0.000000 1.000000   0.000000
REMARK 888
REMARK 888 WRITTEN BY MAESTRO (A PRODUCT OF SCHRODINGER, LLC)
HET    LRS  A 502      67
HETNAM     LRS N-{5-[4-(HYDROXYMETHYL)PIPERIDIN-1-YL]-1-METHYL-2- (MOR
HETNAM   2 LRS PHOLIN-4-YL)-1H-BENZIMIDAZOL-6-YL}PYRAZOLO[1,5- A]PYRIM
HETNAM   3 LRS IDINE-3-CARBOXAMIDE
FORMUL   1  LRS    C25 H30 N8 O3
CRYST1  141.545  140.111   87.822  90.00 123.36  90.00 C 1 2 1      16


$$$$
