# created with PyMOL 3.0.0
@<TRIPOS>MOLECULE
complex
68 74 1                 
SMALL
USER_CHARGES
@<TRIPOS>ATOM
1	 CAB	30.496	6.110	-7.844	C.2	1	KFD501	0.000	
2	 CAD	29.143	7.160	-5.999	C.2	1	KFD501	0.000	
3	 CAE	28.782	5.972	-5.329	C.2	1	KFD501	0.000	
4	 CAF	28.099	6.059	-4.116	C.2	1	KFD501	0.000	
5	 CAG	27.159	5.763	-2.254	C.2	1	KFD501	0.000	
6	 CAH	27.764	7.312	-3.608	C.2	1	KFD501	0.000	
7	 CAI	28.077	8.506	-4.252	C.2	1	KFD501	0.000	
8	 CAJ	28.801	8.428	-5.457	C.2	1	KFD501	0.000	
9	 CAL	29.648	10.740	-5.345	C.3	1	KFD501	0.000	
10	 CAM	30.206	11.894	-6.205	C.3	1	KFD501	0.000	
11	 CAN	29.159	12.420	-7.187	C.3	1	KFD501	0.000	
12	 CAO	28.589	11.245	-7.980	C.3	1	KFD501	0.000	
13	 CAP	28.087	10.107	-7.064	C.3	1	KFD501	0.000	
14	 CAR	26.541	3.805	-0.851	C.3	1	KFD501	0.000	
15	 CAS	26.757	3.410	0.624	C.3	1	KFD501	0.000	
16	 CAU	26.176	5.563	1.361	C.3	1	KFD501	0.000	
17	 CAV	25.951	6.053	-0.086	C.3	1	KFD501	0.000	
18	 CAW	31.382	6.482	-9.009	C.2	1	KFD501	0.000	
19	 CAX	32.251	5.532	-9.559	C.2	1	KFD501	0.000	
20	 CAY	33.104	5.913	-10.589	C.2	1	KFD501	0.000	
21	 CAZ	33.090	7.228	-11.047	C.2	1	KFD501	0.000	
22	 NAC	29.895	7.139	-7.199	N.pl3	1	KFD501	0.000	
23	 NAK	29.111	9.611	-6.129	N.pl3	1	KFD501	0.000	
24	 NAQ	26.682	5.251	-1.080	N.pl3	1	KFD501	0.000	
25	 OAA	30.391	4.924	-7.529	O.2	1	KFD501	0.000	
26	 OAT	25.900	4.174	1.458	O.3	1	KFD501	0.000	
27	 CBA	32.208	8.138	-10.459	C.2	1	KFD501	0.000	
28	 CBC	32.239	9.586	-10.797	C.2	1	KFD501	0.000	
29	 CBD	32.458	10.013	-12.112	C.2	1	KFD501	0.000	
30	 CBF	32.447	12.202	-11.534	C.2	1	KFD501	0.000	
31	 CBH	32.431	14.145	-10.416	C.2	1	KFD501	0.000	
32	 CBI	32.236	13.164	-9.463	C.2	1	KFD501	0.000	
33	 CBJ	32.238	11.913	-10.158	C.2	1	KFD501	0.000	
34	 CBK	32.110	10.564	-9.800	C.2	1	KFD501	0.000	
35	 NBB	31.350	7.764	-9.472	N.2	1	KFD501	0.000	
36	 NBE	32.561	11.306	-12.514	N.2	1	KFD501	0.000	
37	 NBG	32.514	13.570	-11.659	N.2	1	KFD501	0.000	
38	 NBL	27.688	5.086	-3.254	N.2	1	KFD501	0.000	
39	 OBM	27.148	7.123	-2.411	O.2	1	KFD501	0.000	
40	HNAC	30.068	8.058	-7.583	 H	1	KFD501	0.000	
41	HNBG	32.668	14.112	-12.497	 H	1	KFD501	0.000	
42	HAL1	28.880	11.127	-4.673	 H	1	KFD501	0.000	
43	HAL2	30.448	10.349	-4.720	 H	1	KFD501	0.000	
44	HAM1	31.107	11.578	-6.728	 H	1	KFD501	0.000	
45	HAM2	30.524	12.705	-5.550	 H	1	KFD501	0.000	
46	HAN1	29.596	13.160	-7.859	 H	1	KFD501	0.000	
47	HAN2	28.358	12.925	-6.645	 H	1	KFD501	0.000	
48	HAO1	29.333	10.852	-8.670	 H	1	KFD501	0.000	
49	HAO2	27.769	11.608	-8.597	 H	1	KFD501	0.000	
50	HAP1	27.749	9.281	-7.689	 H	1	KFD501	0.000	
51	HAP2	27.223	10.441	-6.490	 H	1	KFD501	0.000	
52	HAR1	27.275	3.267	-1.449	 H	1	KFD501	0.000	
53	HAR2	25.565	3.479	-1.208	 H	1	KFD501	0.000	
54	HAS1	27.799	3.546	0.920	 H	1	KFD501	0.000	
55	HAS2	26.532	2.353	0.763	 H	1	KFD501	0.000	
56	HAU1	27.196	5.765	1.688	 H	1	KFD501	0.000	
57	HAU2	25.520	6.096	2.047	 H	1	KFD501	0.000	
58	HAV1	24.890	6.062	-0.335	 H	1	KFD501	0.000	
59	HAV2	26.277	7.092	-0.138	 H	1	KFD501	0.000	
60	HCAE	29.033	4.993	-5.692	 H	1	KFD501	0.000	
61	HCAI	27.779	9.450	-3.820	 H	1	KFD501	0.000	
62	HCAX	32.285	4.519	-9.188	 H	1	KFD501	0.000	
63	HCAY	33.797	5.198	-10.999	 H	1	KFD501	0.000	
64	HCAZ	33.784	7.538	-11.814	 H	1	KFD501	0.000	
65	HCBD	32.562	9.287	-12.901	 H	1	KFD501	0.000	
66	HCBH	32.513	15.218	-10.319	 H	1	KFD501	0.000	
67	HCBI	32.130	13.337	-8.402	 H	1	KFD501	0.000	
68	HCBK	31.959	10.291	-8.767	 H	1	KFD501	0.000	
@<TRIPOS>BOND
1 1 18 1
2 1 25 2
3 2 22 1
4 2 3 ar
5 3 60 1
6 3 4 ar
7 5 24 1
8 5 38 ar
9 4 6 ar
10 6 39 ar
11 6 7 ar
12 7 61 1
13 2 8 ar
14 7 8 ar
15 9 10 1
16 9 23 1
17 9 42 1
18 9 43 1
19 10 11 1
20 10 44 1
21 10 45 1
22 11 12 1
23 11 46 1
24 11 47 1
25 12 13 1
26 12 48 1
27 12 49 1
28 13 23 1
29 13 50 1
30 13 51 1
31 14 15 1
32 14 52 1
33 14 53 1
34 15 26 1
35 15 54 1
36 15 55 1
37 16 17 1
38 16 56 1
39 16 57 1
40 17 58 1
41 17 59 1
42 18 19 ar
43 18 35 ar
44 19 20 ar
45 19 62 1
46 20 21 ar
47 20 63 1
48 21 27 ar
49 21 64 1
50 1 22 1
51 22 40 1
52 8 23 1
53 14 24 1
54 17 24 1
55 16 26 1
56 27 28 1
57 28 29 ar
58 28 34 ar
59 29 65 1
60 30 36 ar
61 31 37 ar
62 31 66 1
63 31 32 ar
64 32 67 1
65 30 33 ar
66 32 33 ar
67 33 34 ar
68 34 68 1
69 27 35 ar
70 29 36 ar
71 30 37 ar
72 37 41 1
73 4 38 ar
74 5 39 ar
@<TRIPOS>SUBSTRUCTURE
1	KFD501	1	GROUP	1 A	KFD
