complex
  PyMOL3.0          3D                             0

 68 74  0  0  0  0  0  0  0  0999 V2000
   30.4960    6.1100   -7.8440 C   0  0  0  0  0  0  0  0  0  0  0  0
   29.1430    7.1600   -5.9990 C   0  0  0  0  0  0  0  0  0  0  0  0
   28.7820    5.9720   -5.3290 C   0  0  0  0  0  0  0  0  0  0  0  0
   28.0990    6.0590   -4.1160 C   0  0  0  0  0  0  0  0  0  0  0  0
   27.1590    5.7630   -2.2540 C   0  0  0  0  0  0  0  0  0  0  0  0
   27.7640    7.3120   -3.6080 C   0  0  0  0  0  0  0  0  0  0  0  0
   28.0770    8.5060   -4.2520 C   0  0  0  0  0  0  0  0  0  0  0  0
   28.8010    8.4280   -5.4570 C   0  0  0  0  0  0  0  0  0  0  0  0
   29.6480   10.7400   -5.3450 C   0  0  0  0  0  0  0  0  0  0  0  0
   30.2060   11.8940   -6.2050 C   0  0  0  0  0  0  0  0  0  0  0  0
   29.1590   12.4200   -7.1870 C   0  0  0  0  0  0  0  0  0  0  0  0
   28.5890   11.2450   -7.9800 C   0  0  0  0  0  0  0  0  0  0  0  0
   28.0870   10.1070   -7.0640 C   0  0  0  0  0  0  0  0  0  0  0  0
   26.5410    3.8050   -0.8510 C   0  0  0  0  0  0  0  0  0  0  0  0
   26.7570    3.4100    0.6240 C   0  0  0  0  0  0  0  0  0  0  0  0
   26.1760    5.5630    1.3610 C   0  0  0  0  0  0  0  0  0  0  0  0
   25.9510    6.0530   -0.0860 C   0  0  0  0  0  0  0  0  0  0  0  0
   31.3820    6.4820   -9.0090 C   0  0  0  0  0  0  0  0  0  0  0  0
   32.2510    5.5320   -9.5590 C   0  0  0  0  0  0  0  0  0  0  0  0
   33.1040    5.9130  -10.5890 C   0  0  0  0  0  0  0  0  0  0  0  0
   33.0900    7.2280  -11.0470 C   0  0  0  0  0  0  0  0  0  0  0  0
   29.8950    7.1390   -7.1990 N   0  0  0  0  0  0  0  0  0  0  0  0
   29.1110    9.6110   -6.1290 N   0  0  0  0  0  0  0  0  0  0  0  0
   26.6820    5.2510   -1.0800 N   0  0  0  0  0  0  0  0  0  0  0  0
   30.3910    4.9240   -7.5290 O   0  0  0  0  0  0  0  0  0  0  0  0
   25.9000    4.1740    1.4580 O   0  0  0  0  0  0  0  0  0  0  0  0
   32.2080    8.1380  -10.4590 C   0  0  0  0  0  0  0  0  0  0  0  0
   32.2390    9.5860  -10.7970 C   0  0  0  0  0  0  0  0  0  0  0  0
   32.4580   10.0130  -12.1120 C   0  0  0  0  0  0  0  0  0  0  0  0
   32.4470   12.2020  -11.5340 C   0  0  0  0  0  0  0  0  0  0  0  0
   32.4310   14.1450  -10.4160 C   0  0  0  0  0  0  0  0  0  0  0  0
   32.2360   13.1640   -9.4630 C   0  0  0  0  0  0  0  0  0  0  0  0
   32.2380   11.9130  -10.1580 C   0  0  0  0  0  0  0  0  0  0  0  0
   32.1100   10.5640   -9.8000 C   0  0  0  0  0  0  0  0  0  0  0  0
   31.3500    7.7640   -9.4720 N   0  0  0  0  0  0  0  0  0  0  0  0
   32.5610   11.3060  -12.5140 N   0  0  0  0  0  0  0  0  0  0  0  0
   32.5140   13.5700  -11.6590 N   0  0  0  0  0  0  0  0  0  0  0  0
   27.6880    5.0860   -3.2540 N   0  0  0  0  0  0  0  0  0  0  0  0
   27.1480    7.1230   -2.4110 O   0  0  0  0  0  0  0  0  0  0  0  0
   30.0680    8.0580   -7.5830 H   0  0  0  0  0  0  0  0  0  0  0  0
   32.6680   14.1120  -12.4970 H   0  0  0  0  0  0  0  0  0  0  0  0
   28.8800   11.1270   -4.6730 H   0  0  0  0  0  0  0  0  0  0  0  0
   30.4480   10.3490   -4.7200 H   0  0  0  0  0  0  0  0  0  0  0  0
   31.1070   11.5780   -6.7280 H   0  0  0  0  0  0  0  0  0  0  0  0
   30.5240   12.7050   -5.5500 H   0  0  0  0  0  0  0  0  0  0  0  0
   29.5960   13.1600   -7.8590 H   0  0  0  0  0  0  0  0  0  0  0  0
   28.3580   12.9250   -6.6450 H   0  0  0  0  0  0  0  0  0  0  0  0
   29.3330   10.8520   -8.6700 H   0  0  0  0  0  0  0  0  0  0  0  0
   27.7690   11.6080   -8.5970 H   0  0  0  0  0  0  0  0  0  0  0  0
   27.7490    9.2810   -7.6890 H   0  0  0  0  0  0  0  0  0  0  0  0
   27.2230   10.4410   -6.4900 H   0  0  0  0  0  0  0  0  0  0  0  0
   27.2750    3.2670   -1.4490 H   0  0  0  0  0  0  0  0  0  0  0  0
   25.5650    3.4790   -1.2080 H   0  0  0  0  0  0  0  0  0  0  0  0
   27.7990    3.5460    0.9200 H   0  0  0  0  0  0  0  0  0  0  0  0
   26.5320    2.3530    0.7630 H   0  0  0  0  0  0  0  0  0  0  0  0
   27.1960    5.7650    1.6880 H   0  0  0  0  0  0  0  0  0  0  0  0
   25.5200    6.0960    2.0470 H   0  0  0  0  0  0  0  0  0  0  0  0
   24.8900    6.0620   -0.3350 H   0  0  0  0  0  0  0  0  0  0  0  0
   26.2770    7.0920   -0.1380 H   0  0  0  0  0  0  0  0  0  0  0  0
   29.0330    4.9930   -5.6920 H   0  0  0  0  0  0  0  0  0  0  0  0
   27.7790    9.4500   -3.8200 H   0  0  0  0  0  0  0  0  0  0  0  0
   32.2850    4.5190   -9.1880 H   0  0  0  0  0  0  0  0  0  0  0  0
   33.7970    5.1980  -10.9990 H   0  0  0  0  0  0  0  0  0  0  0  0
   33.7840    7.5380  -11.8140 H   0  0  0  0  0  0  0  0  0  0  0  0
   32.5620    9.2870  -12.9010 H   0  0  0  0  0  0  0  0  0  0  0  0
   32.5130   15.2180  -10.3190 H   0  0  0  0  0  0  0  0  0  0  0  0
   32.1300   13.3370   -8.4020 H   0  0  0  0  0  0  0  0  0  0  0  0
   31.9590   10.2910   -8.7670 H   0  0  0  0  0  0  0  0  0  0  0  0
  1 18  1  0  0  0  0
  1 25  2  0  0  0  0
  2 22  1  0  0  0  0
  2  3  4  0  0  0  0
  3 60  1  0  0  0  0
  3  4  4  0  0  0  0
  5 24  1  0  0  0  0
  5 38  4  0  0  0  0
  4  6  4  0  0  0  0
  6 39  4  0  0  0  0
  6  7  4  0  0  0  0
  7 61  1  0  0  0  0
  2  8  4  0  0  0  0
  7  8  4  0  0  0  0
  9 10  1  0  0  0  0
  9 23  1  0  0  0  0
  9 42  1  0  0  0  0
  9 43  1  0  0  0  0
 10 11  1  0  0  0  0
 10 44  1  0  0  0  0
 10 45  1  0  0  0  0
 11 12  1  0  0  0  0
 11 46  1  0  0  0  0
 11 47  1  0  0  0  0
 12 13  1  0  0  0  0
 12 48  1  0  0  0  0
 12 49  1  0  0  0  0
 13 23  1  0  0  0  0
 13 50  1  0  0  0  0
 13 51  1  0  0  0  0
 14 15  1  0  0  0  0
 14 52  1  0  0  0  0
 14 53  1  0  0  0  0
 15 26  1  0  0  0  0
 15 54  1  0  0  0  0
 15 55  1  0  0  0  0
 16 17  1  0  0  0  0
 16 56  1  0  0  0  0
 16 57  1  0  0  0  0
 17 58  1  0  0  0  0
 17 59  1  0  0  0  0
 18 19  4  0  0  0  0
 18 35  4  0  0  0  0
 19 20  4  0  0  0  0
 19 62  1  0  0  0  0
 20 21  4  0  0  0  0
 20 63  1  0  0  0  0
 21 27  4  0  0  0  0
 21 64  1  0  0  0  0
  1 22  1  0  0  0  0
 22 40  1  0  0  0  0
  8 23  1  0  0  0  0
 14 24  1  0  0  0  0
 17 24  1  0  0  0  0
 16 26  1  0  0  0  0
 27 28  1  0  0  0  0
 28 29  4  0  0  0  0
 28 34  4  0  0  0  0
 29 65  1  0  0  0  0
 30 36  4  0  0  0  0
 31 37  4  0  0  0  0
 31 66  1  0  0  0  0
 31 32  4  0  0  0  0
 32 67  1  0  0  0  0
 30 33  4  0  0  0  0
 32 33  4  0  0  0  0
 33 34  4  0  0  0  0
 34 68  1  0  0  0  0
 27 35  4  0  0  0  0
 29 36  4  0  0  0  0
 30 37  4  0  0  0  0
 37 41  1  0  0  0  0
  4 38  4  0  0  0  0
  5 39  4  0  0  0  0
M  END
>  <pdb_header>
HEADER    TRANSFERASE/TRANSFERASE INHIBITOR       29-NOV-18   6N8G
TITLE     IRAK4 BOUND TO BENZOXAZOLE COMPOUND
EXPDTA    X-RAY DIFFRACTION
REMARK   2 RESOLUTION.    2.00 ANGSTROMS
REMARK   3  R VALUE : 0.174000
REMARK   3  FREE R VALUE : 0.220000
REMARK   4 6N8G COMPLIES WITH FORMAT V. 3.30,
REMARK 200  TEMPERATURE           (KELVIN) : 100.00
REMARK 200  PH                             : NULL
REMARK 350 BIOMOLECULE: 1
REMARK 350 APPLY THE FOLLOWING TO CHAINS: A
REMARK 350   BIOMT1  1   1.000000 0.000000 0.000000   0.000000
REMARK 350   BIOMT2  1   0.000000 1.000000 0.000000   0.000000
REMARK 350   BIOMT3  1   0.000000 0.000000 1.000000   0.000000
REMARK 350 BIOMOLECULE: 2
REMARK 350 APPLY THE FOLLOWING TO CHAINS: B
REMARK 350   BIOMT1  1   1.000000 0.000000 0.000000   0.000000
REMARK 350   BIOMT2  1   0.000000 1.000000 0.000000   0.000000
REMARK 350   BIOMT3  1   0.000000 0.000000 1.000000   0.000000
REMARK 350 BIOMOLECULE: 3
REMARK 350 APPLY THE FOLLOWING TO CHAINS: C
REMARK 350   BIOMT1  1   1.000000 0.000000 0.000000   0.000000
REMARK 350   BIOMT2  1   0.000000 1.000000 0.000000   0.000000
REMARK 350   BIOMT3  1   0.000000 0.000000 1.000000   0.000000
REMARK 350 BIOMOLECULE: 4
REMARK 350 APPLY THE FOLLOWING TO CHAINS: D
REMARK 350   BIOMT1  1   1.000000 0.000000 0.000000   0.000000
REMARK 350   BIOMT2  1   0.000000 1.000000 0.000000   0.000000
REMARK 350   BIOMT3  1   0.000000 0.000000 1.000000   0.000000
REMARK 888
REMARK 888 WRITTEN BY MAESTRO (A PRODUCT OF SCHRODINGER, LLC)
HET    KFD  A 501      68
HETNAM     KFD N-[2-(MORPHOLIN-4-YL)-6-(PIPERIDIN-1-YL)-1,3- BENZOXAZO
HETNAM   2 KFD L-5-YL]-6-(1H-PYRROLO[2,3-B]PYRIDIN-5-YL) PYRIDINE-2-CA
HETNAM   3 KFD RBOXAMIDE
FORMUL   1  KFD    C29 H29 N7 O3
CRYST1  142.955  141.927   88.095  90.00 124.58  90.00 C 1 2 1      16


$$$$
