complex
  PyMOL3.0          3D                             0

 40 42  0  0  0  0  0  0  0  0999 V2000
   32.3240    8.6210  -11.1460 C   0  0  0  0  0  0  0  0  0  0  0  0
   31.9770    7.5400  -10.2830 O   0  0  0  0  0  0  0  0  0  0  0  0
   31.3150    7.7790   -9.0860 C   0  0  0  0  0  0  0  0  0  0  0  0
   30.9610    9.0770   -8.6950 C   0  0  0  0  0  0  0  0  0  0  0  0
   30.2660    9.3240   -7.4890 C   0  0  0  0  0  0  0  0  0  0  0  0
   29.9140    8.2310   -6.6530 C   0  0  0  0  0  0  0  0  0  0  0  0
   29.2000    8.4920   -5.4550 C   0  0  0  0  0  0  0  0  0  0  0  0
   28.8960    9.8120   -5.1270 C   0  0  0  0  0  0  0  0  0  0  0  0
   29.2400   10.8730   -5.8940 N   0  0  0  0  0  0  0  0  0  0  0  0
   29.9020   10.6230   -7.0550 C   0  0  0  0  0  0  0  0  0  0  0  0
   30.2470   11.6840   -7.8660 O   0  0  0  0  0  0  0  0  0  0  0  0
   30.1950   13.0260   -7.3890 C   0  0  0  0  0  0  0  0  0  0  0  0
   30.9320   13.9330   -8.4040 C   0  0  0  0  0  0  0  0  0  0  0  0
   30.3070   13.9440   -9.7960 C   0  0  0  0  0  0  0  0  0  0  0  0
   31.1480   12.9910  -10.6250 C   0  0  0  0  0  0  0  0  0  0  0  0
   32.4500   12.8070   -9.8560 C   0  0  0  0  0  0  0  0  0  0  0  0
   33.4350   12.1890  -10.2460 O   0  0  0  0  0  0  0  0  0  0  0  0
   32.2790   13.4330   -8.6780 N   0  0  0  0  0  0  0  0  0  0  0  0
   30.2930    6.9290   -7.0440 C   0  0  0  0  0  0  0  0  0  0  0  0
   30.9940    6.6940   -8.2370 C   0  0  0  0  0  0  0  0  0  0  0  0
   31.3730    5.2590   -8.5520 C   0  0  0  0  0  0  0  0  0  0  0  0
   30.7930    4.3190   -8.0110 O   0  0  0  0  0  0  0  0  0  0  0  0
   32.3840    5.0390   -9.3960 N   0  0  0  0  0  0  0  0  0  0  0  0
   32.9930   13.4420   -7.9620 H   0  0  0  0  0  0  0  0  0  0  0  0
   30.9740   14.9480   -8.0050 H   0  0  0  0  0  0  0  0  0  0  0  0
   30.0310    6.1120   -6.3850 H   0  0  0  0  0  0  0  0  0  0  0  0
   31.2090    9.9290   -9.3090 H   0  0  0  0  0  0  0  0  0  0  0  0
   28.8960    7.6800   -4.8120 H   0  0  0  0  0  0  0  0  0  0  0  0
   28.3470   10.0370   -4.2250 H   0  0  0  0  0  0  0  0  0  0  0  0
   29.1580   13.3400   -7.2650 H   0  0  0  0  0  0  0  0  0  0  0  0
   30.6880   13.0980   -6.4170 H   0  0  0  0  0  0  0  0  0  0  0  0
   30.4110   14.9390  -10.2290 H   0  0  0  0  0  0  0  0  0  0  0  0
   29.2460   13.6890   -9.8030 H   0  0  0  0  0  0  0  0  0  0  0  0
   31.3290   13.3660  -11.6320 H   0  0  0  0  0  0  0  0  0  0  0  0
   30.6680   12.0160  -10.7050 H   0  0  0  0  0  0  0  0  0  0  0  0
   32.6870    4.0960   -9.6020 H   0  0  0  0  0  0  0  0  0  0  0  0
   32.8090    5.8200   -9.8780 H   0  0  0  0  0  0  0  0  0  0  0  0
   32.9010    8.2360  -11.9850 H   0  0  0  0  0  0  0  0  0  0  0  0
   31.4360    9.1110  -11.5480 H   0  0  0  0  0  0  0  0  0  0  0  0
   32.9480    9.3630  -10.6470 H   0  0  0  0  0  0  0  0  0  0  0  0
  1  2  1  0  0  0  0
  1 38  1  0  0  0  0
  1 39  1  0  0  0  0
  1 40  1  0  0  0  0
  2  3  1  0  0  0  0
  3  4  4  0  0  0  0
  4  5  4  0  0  0  0
  4 27  1  0  0  0  0
  5 10  4  0  0  0  0
  5  6  4  0  0  0  0
  6 19  4  0  0  0  0
  6  7  4  0  0  0  0
  7  8  4  0  0  0  0
  7 28  1  0  0  0  0
  8  9  4  0  0  0  0
  8 29  1  0  0  0  0
  9 10  4  0  0  0  0
 10 11  1  0  0  0  0
 11 12  1  0  0  0  0
 12 30  1  0  0  0  0
 12 31  1  0  0  0  0
 12 13  1  0  0  0  0
 13 14  1  0  0  0  0
 13 18  1  0  0  0  0
 13 25  1  0  0  0  0
 14 32  1  0  0  0  0
 14 33  1  0  0  0  0
 14 15  1  0  0  0  0
 15 16  1  0  0  0  0
 15 34  1  0  0  0  0
 15 35  1  0  0  0  0
 16 17  2  0  0  0  0
 16 18  1  0  0  0  0
 18 24  1  0  0  0  0
 19 20  4  0  0  0  0
 19 26  1  0  0  0  0
  3 20  4  0  0  0  0
 20 21  1  0  0  0  0
 21 22  2  0  0  0  0
 21 23  1  0  0  0  0
 23 36  1  0  0  0  0
 23 37  1  0  0  0  0
M  END
>  <pdb_header>
HEADER    TRANSFERASE                             2024-02-22
TITLE     Crystal structure of IRAK4 in complex with compound 4
EXPDTA    X-RAY DIFFRACTION
REMARK   2 RESOLUTION.    1.98 ANGSTROMS
REMARK   3  R VALUE : 0.192100
REMARK   3  FREE R VALUE : 0.212600
REMARK   4 8W3W COMPLIES WITH FORMAT V. 3.0, 1-DEC-2006
REMARK 200  TEMPERATURE           (KELVIN) : 173.00
REMARK 200  PH                             : 7.00
REMARK 350 BIOMOLECULE: 1
REMARK 350 APPLY THE FOLLOWING TO CHAINS: A
REMARK 350   BIOMT1  1   1.000000 0.000000 0.000000   0.000000
REMARK 350   BIOMT2  1   0.000000 1.000000 0.000000   0.000000
REMARK 350   BIOMT3  1   0.000000 0.000000 1.000000   0.000000
REMARK 350 BIOMOLECULE: 2
REMARK 350 APPLY THE FOLLOWING TO CHAINS: B
REMARK 350   BIOMT1  1   1.000000 0.000000 0.000000   0.000000
REMARK 350   BIOMT2  1   0.000000 1.000000 0.000000   0.000000
REMARK 350   BIOMT3  1   0.000000 0.000000 1.000000   0.000000
REMARK 350 BIOMOLECULE: 3
REMARK 350 APPLY THE FOLLOWING TO CHAINS: C
REMARK 350   BIOMT1  1   1.000000 0.000000 0.000000   0.000000
REMARK 350   BIOMT2  1   0.000000 1.000000 0.000000   0.000000
REMARK 350   BIOMT3  1   0.000000 0.000000 1.000000   0.000000
REMARK 350 BIOMOLECULE: 4
REMARK 350 APPLY THE FOLLOWING TO CHAINS: D
REMARK 350   BIOMT1  1   1.000000 0.000000 0.000000   0.000000
REMARK 350   BIOMT2  1   0.000000 1.000000 0.000000   0.000000
REMARK 350   BIOMT3  1   0.000000 0.000000 1.000000   0.000000
REMARK 888
REMARK 888 WRITTEN BY MAESTRO (A PRODUCT OF SCHRODINGER, LLC)
CRYST1  142.720  139.260   88.040  90.00 124.84  90.00 C 2          16


$$$$
