# created with PyMOL 3.0.0
@<TRIPOS>MOLECULE
complex
40 42 1                 
SMALL
USER_CHARGES
@<TRIPOS>ATOM
1	  C1	32.324	8.621	-11.146	C.3	1	UNL501	0.000	
2	  O2	31.977	7.540	-10.283	O.3	1	UNL501	0.000	
3	  C3	31.315	7.779	-9.086	C.2	1	UNL501	0.000	
4	  C4	30.961	9.077	-8.695	C.2	1	UNL501	0.000	
5	  C5	30.266	9.324	-7.489	C.2	1	UNL501	0.000	
6	  C6	29.914	8.231	-6.653	C.2	1	UNL501	0.000	
7	  C7	29.200	8.492	-5.455	C.2	1	UNL501	0.000	
8	  C8	28.896	9.812	-5.127	C.2	1	UNL501	0.000	
9	  N9	29.240	10.873	-5.894	N.2	1	UNL501	0.000	
10	 C10	29.902	10.623	-7.055	C.2	1	UNL501	0.000	
11	 O11	30.247	11.684	-7.866	O.3	1	UNL501	0.000	
12	 C12	30.195	13.026	-7.389	C.3	1	UNL501	0.000	
13	 C13	30.932	13.933	-8.404	C.3	1	UNL501	0.000	
14	 C15	30.307	13.944	-9.796	C.3	1	UNL501	0.000	
15	 C16	31.148	12.991	-10.625	C.3	1	UNL501	0.000	
16	 C17	32.450	12.807	-9.856	C.2	1	UNL501	0.000	
17	 O18	33.435	12.189	-10.246	O.2	1	UNL501	0.000	
18	 N19	32.279	13.433	-8.678	N.pl3	1	UNL501	0.000	
19	 C20	30.293	6.929	-7.044	C.2	1	UNL501	0.000	
20	 C21	30.994	6.694	-8.237	C.2	1	UNL501	0.000	
21	 C22	31.373	5.259	-8.552	C.2	1	UNL501	0.000	
22	 O23	30.793	4.319	-8.011	O.2	1	UNL501	0.000	
23	 N24	32.384	5.039	-9.396	N.pl3	1	UNL501	0.000	
24	HN19	32.993	13.442	-7.962	 H	1	UNL501	0.000	
25	HC13	30.974	14.948	-8.005	 H	1	UNL501	0.000	
26	HC20	30.031	6.112	-6.385	 H	1	UNL501	0.000	
27	 HC4	31.209	9.929	-9.309	 H	1	UNL501	0.000	
28	 HC7	28.896	7.680	-4.812	 H	1	UNL501	0.000	
29	 HC8	28.347	10.037	-4.225	 H	1	UNL501	0.000	
30	H121	29.158	13.340	-7.265	 H	1	UNL501	0.000	
31	H122	30.688	13.098	-6.417	 H	1	UNL501	0.000	
32	H151	30.411	14.939	-10.229	 H	1	UNL501	0.000	
33	H152	29.246	13.689	-9.803	 H	1	UNL501	0.000	
34	H161	31.329	13.366	-11.632	 H	1	UNL501	0.000	
35	H162	30.668	12.016	-10.705	 H	1	UNL501	0.000	
36	H241	32.687	4.096	-9.602	 H	1	UNL501	0.000	
37	H242	32.809	5.820	-9.878	 H	1	UNL501	0.000	
38	H1_1	32.901	8.236	-11.985	 H	1	UNL501	0.000	
39	H1_2	31.436	9.111	-11.548	 H	1	UNL501	0.000	
40	H1_3	32.948	9.363	-10.647	 H	1	UNL501	0.000	
@<TRIPOS>BOND
1 1 2 1
2 1 38 1
3 1 39 1
4 1 40 1
5 2 3 1
6 3 4 ar
7 4 5 ar
8 4 27 1
9 5 10 ar
10 5 6 ar
11 6 19 ar
12 6 7 ar
13 7 8 ar
14 7 28 1
15 8 9 ar
16 8 29 1
17 9 10 ar
18 10 11 1
19 11 12 1
20 12 30 1
21 12 31 1
22 12 13 1
23 13 14 1
24 13 18 1
25 13 25 1
26 14 32 1
27 14 33 1
28 14 15 1
29 15 16 1
30 15 34 1
31 15 35 1
32 16 17 2
33 16 18 1
34 18 24 1
35 19 20 ar
36 19 26 1
37 3 20 ar
38 20 21 1
39 21 22 2
40 21 23 1
41 23 36 1
42 23 37 1
@<TRIPOS>SUBSTRUCTURE
1	UNL501	1	GROUP	1 A	UNL
