complex
  PyMOL3.0          3D                             0

 56 58  0  0  0  0  0  0  0  0999 V2000
   26.8780    7.7070   -3.8200 C   0  0  0  0  0  0  0  0  0  0  0  0
   27.7360    7.1750   -4.7830 C   0  0  0  0  0  0  0  0  0  0  0  0
   28.2610    5.8990   -4.6220 C   0  0  0  0  0  0  0  0  0  0  0  0
   27.9270    5.1250   -3.5120 C   0  0  0  0  0  0  0  0  0  0  0  0
   27.0600    5.6530   -2.5480 C   0  0  0  0  0  0  0  0  0  0  0  0
   26.5340    6.9390   -2.7090 C   0  0  0  0  0  0  0  0  0  0  0  0
   32.5820    5.5820   -9.7710 C   0  0  0  0  0  0  0  0  0  0  0  0
   33.5230    6.0270  -10.6930 C   0  0  0  0  0  0  0  0  0  0  0  0
   33.4160    7.3020  -11.2360 C   0  0  0  0  0  0  0  0  0  0  0  0
   32.3650    8.1510  -10.8670 C   0  0  0  0  0  0  0  0  0  0  0  0
   31.4380    7.6960   -9.9160 C   0  0  0  0  0  0  0  0  0  0  0  0
   31.5480    6.4200   -9.3370 C   0  0  0  0  0  0  0  0  0  0  0  0
   28.2390    7.6730   -5.9810 N   0  0  0  0  0  0  0  0  0  0  0  0
   29.1450    6.7640   -6.6010 C   0  0  0  0  0  0  0  0  0  0  0  0
   29.0940    5.6630   -5.7060 N   0  0  0  0  0  0  0  0  0  0  0  0
   26.7090    4.9200   -1.4400 O   0  0  0  0  0  0  0  0  0  0  0  0
   27.5200    4.9570   -0.3430 C   0  0  0  0  0  0  0  0  0  0  0  0
   26.9000    4.2860    0.9120 C   0  0  0  0  0  0  0  0  0  0  0  0
   28.6290    5.4960   -0.3010 O   0  0  0  0  0  0  0  0  0  0  0  0
   26.1400    2.9880    0.5370 C   0  0  0  0  0  0  0  0  0  0  0  0
   25.9200    5.2960    1.5590 C   0  0  0  0  0  0  0  0  0  0  0  0
   28.0010    3.9410    1.9510 C   0  0  0  0  0  0  0  0  0  0  0  0
   27.9020    8.9770   -6.5600 C   0  0  0  0  0  0  0  0  0  0  0  0
   29.0840    9.9720   -6.6060 C   0  0  0  0  0  0  0  0  0  0  0  0
   29.7790   10.2460   -5.2580 C   0  0  0  0  0  0  0  0  0  0  0  0
   28.8530   10.6660   -4.2760 O   0  0  0  0  0  0  0  0  0  0  0  0
   29.8150    6.9340   -7.6790 N   0  0  0  0  0  0  0  0  0  0  0  0
   30.6230    5.9450   -8.2380 C   0  0  0  0  0  0  0  0  0  0  0  0
   30.6050    4.7530   -7.9080 O   0  0  0  0  0  0  0  0  0  0  0  0
   32.2500    9.5050  -11.4520 N   0  3  0  0  0  0  0  0  0  0  0  0
   31.2790   10.1940  -11.1520 O   0  0  0  0  0  0  0  0  0  0  0  0
   33.1300    9.8890  -12.2180 O   0  5  0  0  0  0  0  0  0  0  0  0
   29.6370    4.8200   -5.8370 H   0  0  0  0  0  0  0  0  0  0  0  0
   26.4670    8.6990   -3.9160 H   0  0  0  0  0  0  0  0  0  0  0  0
   32.6780    4.5810   -9.3800 H   0  0  0  0  0  0  0  0  0  0  0  0
   34.3310    5.3770  -10.9910 H   0  0  0  0  0  0  0  0  0  0  0  0
   34.1490    7.6200  -11.9620 H   0  0  0  0  0  0  0  0  0  0  0  0
   30.6400    8.3590   -9.6110 H   0  0  0  0  0  0  0  0  0  0  0  0
   28.3410    4.1360   -3.3800 H   0  0  0  0  0  0  0  0  0  0  0  0
   25.8630    7.3460   -1.9660 H   0  0  0  0  0  0  0  0  0  0  0  0
   28.2650    9.9350   -4.0710 H   0  0  0  0  0  0  0  0  0  0  0  0
   25.7370    2.4980    1.4250 H   0  0  0  0  0  0  0  0  0  0  0  0
   25.2930    3.1760   -0.1240 H   0  0  0  0  0  0  0  0  0  0  0  0
   26.7940    2.2670    0.0440 H   0  0  0  0  0  0  0  0  0  0  0  0
   25.4590    4.8810    2.4570 H   0  0  0  0  0  0  0  0  0  0  0  0
   26.4200    6.2170    1.8640 H   0  0  0  0  0  0  0  0  0  0  0  0
   25.1050    5.5690    0.8850 H   0  0  0  0  0  0  0  0  0  0  0  0
   27.5690    3.5360    2.8680 H   0  0  0  0  0  0  0  0  0  0  0  0
   28.6940    3.1890    1.5720 H   0  0  0  0  0  0  0  0  0  0  0  0
   28.5900    4.8120    2.2400 H   0  0  0  0  0  0  0  0  0  0  0  0
   27.0970    9.4250   -5.9760 H   0  0  0  0  0  0  0  0  0  0  0  0
   27.4760    8.8240   -7.5520 H   0  0  0  0  0  0  0  0  0  0  0  0
   28.7070   10.9190   -6.9950 H   0  0  0  0  0  0  0  0  0  0  0  0
   29.8130    9.6580   -7.3530 H   0  0  0  0  0  0  0  0  0  0  0  0
   30.5520   11.0040   -5.3760 H   0  0  0  0  0  0  0  0  0  0  0  0
   30.2450    9.3360   -4.8790 H   0  0  0  0  0  0  0  0  0  0  0  0
  1 34  1  0  0  0  0
  1  2  4  0  0  0  0
  2 13  4  0  0  0  0
  2  3  4  0  0  0  0
  3  4  4  0  0  0  0
  4  5  4  0  0  0  0
  4 39  1  0  0  0  0
  5  6  4  0  0  0  0
  5 16  1  0  0  0  0
  1  6  4  0  0  0  0
  6 40  1  0  0  0  0
  7 12  4  0  0  0  0
  7 35  1  0  0  0  0
  7  8  4  0  0  0  0
  8 36  1  0  0  0  0
  8  9  4  0  0  0  0
  9 37  1  0  0  0  0
  9 10  4  0  0  0  0
 10 11  4  0  0  0  0
 11 12  4  0  0  0  0
 11 38  1  0  0  0  0
 12 28  1  0  0  0  0
 13 23  1  0  0  0  0
 13 14  4  0  0  0  0
 14 15  4  0  0  0  0
  3 15  4  0  0  0  0
 15 33  1  0  0  0  0
 16 17  1  0  0  0  0
 17 18  1  0  0  0  0
 17 19  2  0  0  0  0
 18 20  1  0  0  0  0
 18 21  1  0  0  0  0
 18 22  1  0  0  0  0
 20 42  1  0  0  0  0
 20 43  1  0  0  0  0
 20 44  1  0  0  0  0
 21 45  1  0  0  0  0
 21 46  1  0  0  0  0
 21 47  1  0  0  0  0
 22 48  1  0  0  0  0
 22 49  1  0  0  0  0
 22 50  1  0  0  0  0
 23 24  1  0  0  0  0
 23 51  1  0  0  0  0
 23 52  1  0  0  0  0
 24 25  1  0  0  0  0
 24 53  1  0  0  0  0
 24 54  1  0  0  0  0
 25 26  1  0  0  0  0
 25 55  1  0  0  0  0
 25 56  1  0  0  0  0
 26 41  1  0  0  0  0
 14 27  2  0  0  0  0
 27 28  1  0  0  0  0
 28 29  2  0  0  0  0
 10 30  1  0  0  0  0
 30 31  4  0  0  0  0
 30 32  4  0  0  0  0
M  END
>  <pdb_header>
HEADER    TRANSFERASE                             02-NOV-06   2NRU
TITLE     CRYSTAL STRUCTURE OF IRAK-4
EXPDTA    X-RAY DIFFRACTION
REMARK   2 RESOLUTION.    2.00 ANGSTROMS
REMARK   3  R VALUE : 0.233000
REMARK   3  FREE R VALUE : 0.299000
REMARK   4 2NRU COMPLIES WITH FORMAT V. 3.30,
REMARK 200  TEMPERATURE           (KELVIN) : NULL
REMARK 200  PH                             : 6.40
REMARK 350 BIOMOLECULE: 1
REMARK 350 APPLY THE FOLLOWING TO CHAINS: A
REMARK 350   BIOMT1  1   1.000000 0.000000 0.000000   0.000000
REMARK 350   BIOMT2  1   0.000000 1.000000 0.000000   0.000000
REMARK 350   BIOMT3  1   0.000000 0.000000 1.000000   0.000000
REMARK 350 BIOMOLECULE: 2
REMARK 350 APPLY THE FOLLOWING TO CHAINS: B
REMARK 350   BIOMT1  1   1.000000 0.000000 0.000000   0.000000
REMARK 350   BIOMT2  1   0.000000 1.000000 0.000000   0.000000
REMARK 350   BIOMT3  1   0.000000 0.000000 1.000000   0.000000
REMARK 350 BIOMOLECULE: 3
REMARK 350 APPLY THE FOLLOWING TO CHAINS: C
REMARK 350   BIOMT1  1   1.000000 0.000000 0.000000   0.000000
REMARK 350   BIOMT2  1   0.000000 1.000000 0.000000   0.000000
REMARK 350   BIOMT3  1   0.000000 0.000000 1.000000   0.000000
REMARK 350 BIOMOLECULE: 4
REMARK 350 APPLY THE FOLLOWING TO CHAINS: D
REMARK 350   BIOMT1  1   1.000000 0.000000 0.000000   0.000000
REMARK 350   BIOMT2  1   0.000000 1.000000 0.000000   0.000000
REMARK 350   BIOMT3  1   0.000000 0.000000 1.000000   0.000000
REMARK 888
REMARK 888 WRITTEN BY MAESTRO (A PRODUCT OF SCHRODINGER, LLC)
HET    T12  A 600      56
HETNAM     T12 1-(3-HYDROXYPROPYL)-2-[(3-NITROBENZOYL)AMINO]-1H- BENZI
HETNAM   2 T12 MIDAZOL-5-YL PIVALATE
FORMUL   1  T12    C22 H24 N4 O6
CRYST1  145.303  141.292   88.423  90.00 125.80  90.00 C 1 2 1      16


$$$$
