# created with PyMOL 3.0.0
@<TRIPOS>MOLECULE
complex
56 58 1                 
SMALL
USER_CHARGES
@<TRIPOS>ATOM
1	  C1	26.878	7.707	-3.820	C.2	1	T12600	0.000	
2	  C2	27.736	7.175	-4.783	C.2	1	T12600	0.000	
3	  C3	28.261	5.899	-4.622	C.2	1	T12600	0.000	
4	  C4	27.927	5.125	-3.512	C.2	1	T12600	0.000	
5	  C5	27.060	5.653	-2.548	C.2	1	T12600	0.000	
6	  C6	26.534	6.939	-2.709	C.2	1	T12600	0.000	
7	 C10	32.582	5.582	-9.771	C.2	1	T12600	0.000	
8	 C11	33.523	6.027	-10.693	C.2	1	T12600	0.000	
9	 C12	33.416	7.302	-11.236	C.2	1	T12600	0.000	
10	 C13	32.365	8.151	-10.867	C.2	1	T12600	0.000	
11	 C14	31.438	7.696	-9.916	C.2	1	T12600	0.000	
12	 C15	31.548	6.420	-9.337	C.2	1	T12600	0.000	
13	 N20	28.239	7.673	-5.981	N.2	1	T12600	0.000	
14	 C21	29.145	6.764	-6.601	C.2	1	T12600	0.000	
15	 N22	29.094	5.663	-5.706	N.2	1	T12600	0.000	
16	 O23	26.709	4.920	-1.440	O.3	1	T12600	0.000	
17	 C24	27.520	4.957	-0.343	C.2	1	T12600	0.000	
18	 C25	26.900	4.286	0.912	C.3	1	T12600	0.000	
19	 O26	28.629	5.496	-0.301	O.co2	1	T12600	0.000	
20	 C27	26.140	2.988	0.537	C.3	1	T12600	0.000	
21	 C31	25.920	5.296	1.559	C.3	1	T12600	0.000	
22	 C35	28.001	3.941	1.951	C.3	1	T12600	0.000	
23	 C39	27.902	8.977	-6.560	C.3	1	T12600	0.000	
24	 C40	29.084	9.972	-6.606	C.3	1	T12600	0.000	
25	 C43	29.779	10.246	-5.258	C.3	1	T12600	0.000	
26	 O46	28.853	10.666	-4.276	O.3	1	T12600	0.000	
27	 N50	29.815	6.934	-7.679	N.2	1	T12600	0.000	
28	 C51	30.623	5.945	-8.238	C.2	1	T12600	0.000	
29	 O53	30.605	4.753	-7.908	O.2	1	T12600	0.000	
30	 N54	32.250	9.505	-11.452	N.pl3	1	T12600	0.000	
31	 O55	31.279	10.194	-11.152	O.2	1	T12600	0.000	
32	 O56	33.130	9.889	-12.218	O.2	1	T12600	0.000	
33	HN22	29.637	4.820	-5.837	 H	1	T12600	0.000	
34	 HC1	26.467	8.699	-3.916	 H	1	T12600	0.000	
35	HC10	32.678	4.581	-9.380	 H	1	T12600	0.000	
36	HC11	34.331	5.377	-10.991	 H	1	T12600	0.000	
37	HC12	34.149	7.620	-11.962	 H	1	T12600	0.000	
38	HC14	30.640	8.359	-9.611	 H	1	T12600	0.000	
39	 HC4	28.341	4.136	-3.380	 H	1	T12600	0.000	
40	 HC6	25.863	7.346	-1.966	 H	1	T12600	0.000	
41	HO46	28.265	9.935	-4.071	 H	1	T12600	0.000	
42	H271	25.737	2.498	1.425	 H	1	T12600	0.000	
43	H272	25.293	3.176	-0.124	 H	1	T12600	0.000	
44	H273	26.794	2.267	0.044	 H	1	T12600	0.000	
45	H311	25.459	4.881	2.457	 H	1	T12600	0.000	
46	H312	26.420	6.217	1.864	 H	1	T12600	0.000	
47	H313	25.105	5.569	0.885	 H	1	T12600	0.000	
48	H351	27.569	3.536	2.868	 H	1	T12600	0.000	
49	H352	28.694	3.189	1.572	 H	1	T12600	0.000	
50	H353	28.590	4.812	2.240	 H	1	T12600	0.000	
51	H391	27.097	9.425	-5.976	 H	1	T12600	0.000	
52	H392	27.476	8.824	-7.552	 H	1	T12600	0.000	
53	H401	28.707	10.919	-6.995	 H	1	T12600	0.000	
54	H402	29.813	9.658	-7.353	 H	1	T12600	0.000	
55	H431	30.552	11.004	-5.376	 H	1	T12600	0.000	
56	H432	30.245	9.336	-4.879	 H	1	T12600	0.000	
@<TRIPOS>BOND
1 1 34 1
2 1 2 ar
3 2 13 ar
4 2 3 ar
5 3 4 ar
6 4 5 ar
7 4 39 1
8 5 6 ar
9 5 16 1
10 1 6 ar
11 6 40 1
12 7 12 ar
13 7 35 1
14 7 8 ar
15 8 36 1
16 8 9 ar
17 9 37 1
18 9 10 ar
19 10 11 ar
20 11 12 ar
21 11 38 1
22 12 28 1
23 13 23 1
24 13 14 ar
25 14 15 ar
26 3 15 ar
27 15 33 1
28 16 17 1
29 17 18 1
30 17 19 2
31 18 20 1
32 18 21 1
33 18 22 1
34 20 42 1
35 20 43 1
36 20 44 1
37 21 45 1
38 21 46 1
39 21 47 1
40 22 48 1
41 22 49 1
42 22 50 1
43 23 24 1
44 23 51 1
45 23 52 1
46 24 25 1
47 24 53 1
48 24 54 1
49 25 26 1
50 25 55 1
51 25 56 1
52 26 41 1
53 14 27 2
54 27 28 1
55 28 29 2
56 10 30 1
57 30 31 ar
58 30 32 ar
@<TRIPOS>SUBSTRUCTURE
1	T12600	1	GROUP	1 A	T12
