# created with PyMOL 3.0.0
@<TRIPOS>MOLECULE
complex
53 57 1                 
SMALL
USER_CHARGES
@<TRIPOS>ATOM
1	  C1	27.390	4.795	-1.070	C.3	1	LSV502	0.000	
2	  C2	27.068	5.162	-2.533	C.3	1	LSV502	0.000	
3	  C3	27.990	4.434	-3.536	C.3	1	LSV502	0.000	
4	  C4	28.396	5.532	-4.459	C.2	1	LSV502	0.000	
5	  C5	29.136	5.537	-5.636	C.2	1	LSV502	0.000	
6	  C6	29.496	6.758	-6.242	C.2	1	LSV502	0.000	
7	  C7	29.116	7.977	-5.624	C.2	1	LSV502	0.000	
8	  C8	28.368	7.945	-4.434	C.2	1	LSV502	0.000	
9	  C9	28.031	6.721	-3.876	C.2	1	LSV502	0.000	
10	 O10	27.340	6.562	-2.702	O.3	1	LSV502	0.000	
11	 N11	29.404	9.200	-6.219	N.pl3	1	LSV502	0.000	
12	 C12	28.270	9.882	-6.862	C.3	1	LSV502	0.000	
13	 C13	28.723	11.102	-7.690	C.3	1	LSV502	0.000	
14	 O14	29.411	12.020	-6.852	O.3	1	LSV502	0.000	
15	 C15	30.549	11.428	-6.241	C.3	1	LSV502	0.000	
16	 C16	30.112	10.205	-5.406	C.3	1	LSV502	0.000	
17	 N17	30.263	6.833	-7.432	N.pl3	1	LSV502	0.000	
18	 C18	30.845	5.854	-8.156	C.2	1	LSV502	0.000	
19	 O19	30.728	4.645	-7.964	O.2	1	LSV502	0.000	
20	 C20	31.699	6.342	-9.206	C.2	1	LSV502	0.000	
21	 C21	32.624	5.553	-9.904	C.2	1	LSV502	0.000	
22	 N22	33.349	6.192	-10.794	N.2	1	LSV502	0.000	
23	 N23	32.885	7.454	-10.761	N.2	1	LSV502	0.000	
24	 C24	31.855	7.621	-9.819	C.2	1	LSV502	0.000	
25	 N25	31.279	8.820	-9.637	N.2	1	LSV502	0.000	
26	 C26	31.747	9.859	-10.383	C.2	1	LSV502	0.000	
27	 C27	32.763	9.743	-11.331	C.2	1	LSV502	0.000	
28	 C28	33.345	8.494	-11.521	C.2	1	LSV502	0.000	
29	 C29	25.572	4.970	-2.915	C.3	1	LSV502	0.000	
30	 O30	24.686	5.617	-2.022	O.3	1	LSV502	0.000	
31	HN17	30.450	7.777	-7.736	 H	1	LSV502	0.000	
32	HC21	32.785	4.499	-9.734	 H	1	LSV502	0.000	
33	HC26	31.285	10.819	-10.204	 H	1	LSV502	0.000	
34	HC27	33.096	10.601	-11.896	 H	1	LSV502	0.000	
35	HC28	34.140	8.295	-12.225	 H	1	LSV502	0.000	
36	 HC5	29.423	4.584	-6.045	 H	1	LSV502	0.000	
37	 HC8	28.055	8.861	-3.955	 H	1	LSV502	0.000	
38	HO30	24.858	6.562	-2.047	 H	1	LSV502	0.000	
39	H121	27.761	9.176	-7.521	 H	1	LSV502	0.000	
40	H122	27.542	10.185	-6.110	 H	1	LSV502	0.000	
41	H131	27.863	11.604	-8.130	 H	1	LSV502	0.000	
42	H132	29.366	10.795	-8.513	 H	1	LSV502	0.000	
43	H151	31.021	12.172	-5.599	 H	1	LSV502	0.000	
44	H152	31.285	11.151	-6.997	 H	1	LSV502	0.000	
45	H161	30.997	9.733	-4.980	 H	1	LSV502	0.000	
46	H162	29.496	10.528	-4.566	 H	1	LSV502	0.000	
47	H291	25.320	3.909	-2.921	 H	1	LSV502	0.000	
48	H292	25.378	5.340	-3.922	 H	1	LSV502	0.000	
49	H1_1	26.811	5.395	-0.368	 H	1	LSV502	0.000	
50	H1_2	27.174	3.745	-0.870	 H	1	LSV502	0.000	
51	H1_3	28.443	4.966	-0.841	 H	1	LSV502	0.000	
52	H3_1	28.887	4.061	-3.042	 H	1	LSV502	0.000	
53	H3_2	27.505	3.582	-4.013	 H	1	LSV502	0.000	
@<TRIPOS>BOND
1 1 2 1
2 1 49 1
3 1 50 1
4 1 51 1
5 2 10 1
6 2 29 1
7 2 3 1
8 3 52 1
9 3 53 1
10 3 4 1
11 4 5 ar
12 4 9 ar
13 5 6 ar
14 5 36 1
15 6 7 ar
16 6 17 1
17 7 8 ar
18 7 11 1
19 8 9 ar
20 8 37 1
21 9 10 1
22 11 16 1
23 11 12 1
24 12 13 1
25 12 39 1
26 12 40 1
27 13 14 1
28 13 41 1
29 13 42 1
30 14 15 1
31 15 16 1
32 15 43 1
33 15 44 1
34 16 45 1
35 16 46 1
36 17 18 1
37 17 31 1
38 18 19 2
39 18 20 1
40 20 21 ar
41 20 24 ar
42 21 22 ar
43 21 32 1
44 22 23 ar
45 23 24 ar
46 23 28 ar
47 24 25 ar
48 25 26 ar
49 26 27 ar
50 26 33 1
51 27 28 ar
52 27 34 1
53 28 35 1
54 29 30 1
55 29 47 1
56 29 48 1
57 30 38 1
@<TRIPOS>SUBSTRUCTURE
1	LSV502	1	GROUP	1 A	LSV
