complex
  PyMOL3.0          3D                             0

 53 57  0  0  0  0  0  0  0  0999 V2000
   27.3900    4.7950   -1.0700 C   0  0  0  0  0  0  0  0  0  0  0  0
   27.0680    5.1620   -2.5330 C   0  0  0  0  0  0  0  0  0  0  0  0
   27.9900    4.4340   -3.5360 C   0  0  0  0  0  0  0  0  0  0  0  0
   28.3960    5.5320   -4.4590 C   0  0  0  0  0  0  0  0  0  0  0  0
   29.1360    5.5370   -5.6360 C   0  0  0  0  0  0  0  0  0  0  0  0
   29.4960    6.7580   -6.2420 C   0  0  0  0  0  0  0  0  0  0  0  0
   29.1160    7.9770   -5.6240 C   0  0  0  0  0  0  0  0  0  0  0  0
   28.3680    7.9450   -4.4340 C   0  0  0  0  0  0  0  0  0  0  0  0
   28.0310    6.7210   -3.8760 C   0  0  0  0  0  0  0  0  0  0  0  0
   27.3400    6.5620   -2.7020 O   0  0  0  0  0  0  0  0  0  0  0  0
   29.4040    9.2000   -6.2190 N   0  0  0  0  0  0  0  0  0  0  0  0
   28.2700    9.8820   -6.8620 C   0  0  0  0  0  0  0  0  0  0  0  0
   28.7230   11.1020   -7.6900 C   0  0  0  0  0  0  0  0  0  0  0  0
   29.4110   12.0200   -6.8520 O   0  0  0  0  0  0  0  0  0  0  0  0
   30.5490   11.4280   -6.2410 C   0  0  0  0  0  0  0  0  0  0  0  0
   30.1120   10.2050   -5.4060 C   0  0  0  0  0  0  0  0  0  0  0  0
   30.2630    6.8330   -7.4320 N   0  0  0  0  0  0  0  0  0  0  0  0
   30.8450    5.8540   -8.1560 C   0  0  0  0  0  0  0  0  0  0  0  0
   30.7280    4.6450   -7.9640 O   0  0  0  0  0  0  0  0  0  0  0  0
   31.6990    6.3420   -9.2060 C   0  0  0  0  0  0  0  0  0  0  0  0
   32.6240    5.5530   -9.9040 C   0  0  0  0  0  0  0  0  0  0  0  0
   33.3490    6.1920  -10.7940 N   0  0  0  0  0  0  0  0  0  0  0  0
   32.8850    7.4540  -10.7610 N   0  0  0  0  0  0  0  0  0  0  0  0
   31.8550    7.6210   -9.8190 C   0  0  0  0  0  0  0  0  0  0  0  0
   31.2790    8.8200   -9.6370 N   0  0  0  0  0  0  0  0  0  0  0  0
   31.7470    9.8590  -10.3830 C   0  0  0  0  0  0  0  0  0  0  0  0
   32.7630    9.7430  -11.3310 C   0  0  0  0  0  0  0  0  0  0  0  0
   33.3450    8.4940  -11.5210 C   0  0  0  0  0  0  0  0  0  0  0  0
   25.5720    4.9700   -2.9150 C   0  0  0  0  0  0  0  0  0  0  0  0
   24.6860    5.6170   -2.0220 O   0  0  0  0  0  0  0  0  0  0  0  0
   30.4500    7.7770   -7.7360 H   0  0  0  0  0  0  0  0  0  0  0  0
   32.7850    4.4990   -9.7340 H   0  0  0  0  0  0  0  0  0  0  0  0
   31.2850   10.8190  -10.2040 H   0  0  0  0  0  0  0  0  0  0  0  0
   33.0960   10.6010  -11.8960 H   0  0  0  0  0  0  0  0  0  0  0  0
   34.1400    8.2950  -12.2250 H   0  0  0  0  0  0  0  0  0  0  0  0
   29.4230    4.5840   -6.0450 H   0  0  0  0  0  0  0  0  0  0  0  0
   28.0550    8.8610   -3.9550 H   0  0  0  0  0  0  0  0  0  0  0  0
   24.8580    6.5620   -2.0470 H   0  0  0  0  0  0  0  0  0  0  0  0
   27.7610    9.1760   -7.5210 H   0  0  0  0  0  0  0  0  0  0  0  0
   27.5420   10.1850   -6.1100 H   0  0  0  0  0  0  0  0  0  0  0  0
   27.8630   11.6040   -8.1300 H   0  0  0  0  0  0  0  0  0  0  0  0
   29.3660   10.7950   -8.5130 H   0  0  0  0  0  0  0  0  0  0  0  0
   31.0210   12.1720   -5.5990 H   0  0  0  0  0  0  0  0  0  0  0  0
   31.2850   11.1510   -6.9970 H   0  0  0  0  0  0  0  0  0  0  0  0
   30.9970    9.7330   -4.9800 H   0  0  0  0  0  0  0  0  0  0  0  0
   29.4960   10.5280   -4.5660 H   0  0  0  0  0  0  0  0  0  0  0  0
   25.3200    3.9090   -2.9210 H   0  0  0  0  0  0  0  0  0  0  0  0
   25.3780    5.3400   -3.9220 H   0  0  0  0  0  0  0  0  0  0  0  0
   26.8110    5.3950   -0.3680 H   0  0  0  0  0  0  0  0  0  0  0  0
   27.1740    3.7450   -0.8700 H   0  0  0  0  0  0  0  0  0  0  0  0
   28.4430    4.9660   -0.8410 H   0  0  0  0  0  0  0  0  0  0  0  0
   28.8870    4.0610   -3.0420 H   0  0  0  0  0  0  0  0  0  0  0  0
   27.5050    3.5820   -4.0130 H   0  0  0  0  0  0  0  0  0  0  0  0
  1  2  1  0  0  0  0
  1 49  1  0  0  0  0
  1 50  1  0  0  0  0
  1 51  1  0  0  0  0
  2 10  1  0  0  0  0
  2 29  1  0  0  0  0
  2  3  1  0  0  0  0
  3 52  1  0  0  0  0
  3 53  1  0  0  0  0
  3  4  1  0  0  0  0
  4  5  4  0  0  0  0
  4  9  4  0  0  0  0
  5  6  4  0  0  0  0
  5 36  1  0  0  0  0
  6  7  4  0  0  0  0
  6 17  1  0  0  0  0
  7  8  4  0  0  0  0
  7 11  1  0  0  0  0
  8  9  4  0  0  0  0
  8 37  1  0  0  0  0
  9 10  1  0  0  0  0
 11 16  1  0  0  0  0
 11 12  1  0  0  0  0
 12 13  1  0  0  0  0
 12 39  1  0  0  0  0
 12 40  1  0  0  0  0
 13 14  1  0  0  0  0
 13 41  1  0  0  0  0
 13 42  1  0  0  0  0
 14 15  1  0  0  0  0
 15 16  1  0  0  0  0
 15 43  1  0  0  0  0
 15 44  1  0  0  0  0
 16 45  1  0  0  0  0
 16 46  1  0  0  0  0
 17 18  1  0  0  0  0
 17 31  1  0  0  0  0
 18 19  2  0  0  0  0
 18 20  1  0  0  0  0
 20 21  4  0  0  0  0
 20 24  4  0  0  0  0
 21 22  4  0  0  0  0
 21 32  1  0  0  0  0
 22 23  4  0  0  0  0
 23 24  4  0  0  0  0
 23 28  4  0  0  0  0
 24 25  4  0  0  0  0
 25 26  4  0  0  0  0
 26 27  4  0  0  0  0
 26 33  1  0  0  0  0
 27 28  4  0  0  0  0
 27 34  1  0  0  0  0
 28 35  1  0  0  0  0
 29 30  1  0  0  0  0
 29 47  1  0  0  0  0
 29 48  1  0  0  0  0
 30 38  1  0  0  0  0
M  END
>  <pdb_header>
HEADER    IMMUNE SYSTEM                           13-MAR-19   6O95
TITLE     STRUCTURE OF THE IRAK4 KINASE DOMAIN WITH COMPOUND 41
EXPDTA    X-RAY DIFFRACTION
REMARK   2 RESOLUTION.    1.77 ANGSTROMS
REMARK   3  R VALUE : 0.188000
REMARK   3  FREE R VALUE : 0.217000
REMARK   4 6O95 COMPLIES WITH FORMAT V. 3.30,
REMARK 200  TEMPERATURE           (KELVIN) : 100.00
REMARK 200  PH                             : NULL
REMARK 350 BIOMOLECULE: 1
REMARK 350 APPLY THE FOLLOWING TO CHAINS: A
REMARK 350   BIOMT1  1   1.000000 0.000000 0.000000   0.000000
REMARK 350   BIOMT2  1   0.000000 1.000000 0.000000   0.000000
REMARK 350   BIOMT3  1   0.000000 0.000000 1.000000   0.000000
REMARK 350 BIOMOLECULE: 2
REMARK 350 APPLY THE FOLLOWING TO CHAINS: B
REMARK 350   BIOMT1  1   1.000000 0.000000 0.000000   0.000000
REMARK 350   BIOMT2  1   0.000000 1.000000 0.000000   0.000000
REMARK 350   BIOMT3  1   0.000000 0.000000 1.000000   0.000000
REMARK 350 BIOMOLECULE: 3
REMARK 350 APPLY THE FOLLOWING TO CHAINS: C
REMARK 350   BIOMT1  1   1.000000 0.000000 0.000000   0.000000
REMARK 350   BIOMT2  1   0.000000 1.000000 0.000000   0.000000
REMARK 350   BIOMT3  1   0.000000 0.000000 1.000000   0.000000
REMARK 350 BIOMOLECULE: 4
REMARK 350 APPLY THE FOLLOWING TO CHAINS: D
REMARK 350   BIOMT1  1   1.000000 0.000000 0.000000   0.000000
REMARK 350   BIOMT2  1   0.000000 1.000000 0.000000   0.000000
REMARK 350   BIOMT3  1   0.000000 0.000000 1.000000   0.000000
REMARK 888
REMARK 888 WRITTEN BY MAESTRO (A PRODUCT OF SCHRODINGER, LLC)
HET    LSV  A 502      53
HETNAM     LSV N-[(2R)-2-(HYDROXYMETHYL)-2-METHYL-6-(MORPHOLIN-4-YL)- 
HETNAM   2 LSV 2,3-DIHYDRO-1-BENZOFURAN-5-YL]PYRAZOLO[1,5- A]PYRIMIDIN
HETNAM   3 LSV E-3-CARBOXAMIDE
FORMUL   1  LSV    C21 H23 N5 O4
CRYST1  141.838  140.615   87.559  90.00 123.71  90.00 C 1 2 1      16


$$$$
