# created with PyMOL 3.0.0
@<TRIPOS>MOLECULE
complex
46 48 1                 
SMALL
USER_CHARGES
@<TRIPOS>ATOM
1	  C1	31.337	8.982	-11.857	C.3	1	8CD501	0.000	
2	  N1	29.163	10.990	-5.683	N.2	1	8CD501	0.000	
3	  O1	31.924	7.562	-9.979	O.3	1	8CD501	0.000	
4	  C2	32.413	8.602	-10.831	C.3	1	8CD501	0.000	
5	  N2	32.288	13.470	-8.525	N.pl3	1	8CD501	0.000	
6	  O2	30.238	11.750	-7.644	O.3	1	8CD501	0.000	
7	  C3	33.684	8.066	-11.492	C.3	1	8CD501	0.000	
8	  N3	32.178	5.044	-9.123	N.pl3	1	8CD501	0.000	
9	  O3	33.446	12.238	-10.105	O.2	1	8CD501	0.000	
10	  C4	31.213	7.824	-8.815	C.2	1	8CD501	0.000	
11	  O4	30.539	4.378	-7.768	O.2	1	8CD501	0.000	
12	  C5	30.870	9.129	-8.443	C.2	1	8CD501	0.000	
13	  C6	30.164	9.398	-7.251	C.2	1	8CD501	0.000	
14	  C7	29.767	8.320	-6.417	C.2	1	8CD501	0.000	
15	  C8	29.047	8.610	-5.228	C.2	1	8CD501	0.000	
16	  C9	28.776	9.943	-4.915	C.2	1	8CD501	0.000	
17	 C10	29.836	10.711	-6.831	C.2	1	8CD501	0.000	
18	 C11	30.220	13.101	-7.190	C.3	1	8CD501	0.000	
19	 C12	30.944	13.976	-8.243	C.3	1	8CD501	0.000	
20	 C13	30.298	13.952	-9.627	C.3	1	8CD501	0.000	
21	 C14	31.134	12.986	-10.449	C.3	1	8CD501	0.000	
22	 C15	32.453	12.837	-9.701	C.2	1	8CD501	0.000	
23	 C16	30.108	7.005	-6.802	C.2	1	8CD501	0.000	
24	 C17	30.831	6.747	-7.979	C.2	1	8CD501	0.000	
25	 C18	31.161	5.299	-8.294	C.2	1	8CD501	0.000	
26	 HN2	33.012	13.497	-7.819	 H	1	8CD501	0.000	
27	HC12	30.995	15.003	-7.874	 H	1	8CD501	0.000	
28	HC16	29.804	6.196	-6.151	 H	1	8CD501	0.000	
29	 HC2	32.724	9.488	-10.279	 H	1	8CD501	0.000	
30	 HC5	31.135	9.976	-9.054	 H	1	8CD501	0.000	
31	 HC8	28.716	7.811	-4.581	 H	1	8CD501	0.000	
32	 HC9	28.219	10.189	-4.023	 H	1	8CD501	0.000	
33	H111	30.737	13.177	-6.231	 H	1	8CD501	0.000	
34	H112	29.192	13.434	-7.047	 H	1	8CD501	0.000	
35	H131	30.385	14.938	-10.087	 H	1	8CD501	0.000	
36	H132	29.242	13.685	-9.612	 H	1	8CD501	0.000	
37	H141	31.286	13.333	-11.472	 H	1	8CD501	0.000	
38	H142	30.663	12.004	-10.491	 H	1	8CD501	0.000	
39	H1_1	31.718	9.706	-12.577	 H	1	8CD501	0.000	
40	H1_2	30.991	8.108	-12.410	 H	1	8CD501	0.000	
41	H1_3	30.471	9.425	-11.370	 H	1	8CD501	0.000	
42	H3_1	32.637	5.812	-9.593	 H	1	8CD501	0.000	
43	H3_1	34.058	8.742	-12.261	 H	1	8CD501	0.000	
44	H3_2	32.450	4.093	-9.333	 H	1	8CD501	0.000	
45	H3_2	34.473	7.936	-10.756	 H	1	8CD501	0.000	
46	H3_3	33.507	7.091	-11.939	 H	1	8CD501	0.000	
@<TRIPOS>BOND
1 1 39 1
2 1 40 1
3 1 41 1
4 2 17 ar
5 3 4 1
6 1 4 1
7 4 7 1
8 4 29 1
9 5 19 1
10 5 22 1
11 5 26 1
12 6 18 1
13 7 43 1
14 7 45 1
15 7 46 1
16 8 25 1
17 8 42 1
18 8 44 1
19 3 10 1
20 10 12 ar
21 10 24 ar
22 12 30 1
23 12 13 ar
24 13 17 ar
25 13 14 ar
26 14 15 ar
27 14 23 ar
28 15 31 1
29 2 16 ar
30 15 16 ar
31 16 32 1
32 6 17 1
33 18 19 1
34 18 33 1
35 18 34 1
36 19 27 1
37 19 20 1
38 20 21 1
39 20 35 1
40 20 36 1
41 21 37 1
42 21 38 1
43 9 22 2
44 21 22 1
45 23 24 ar
46 23 28 1
47 11 25 2
48 24 25 1
@<TRIPOS>SUBSTRUCTURE
1	8CD501	1	GROUP	1 A	8CD
