complex
  PyMOL3.0          3D                             0

 46 48  0  0  0  0  0  0  0  0999 V2000
   31.3370    8.9820  -11.8570 C   0  0  0  0  0  0  0  0  0  0  0  0
   29.1630   10.9900   -5.6830 N   0  0  0  0  0  0  0  0  0  0  0  0
   31.9240    7.5620   -9.9790 O   0  0  0  0  0  0  0  0  0  0  0  0
   32.4130    8.6020  -10.8310 C   0  0  0  0  0  0  0  0  0  0  0  0
   32.2880   13.4700   -8.5250 N   0  0  0  0  0  0  0  0  0  0  0  0
   30.2380   11.7500   -7.6440 O   0  0  0  0  0  0  0  0  0  0  0  0
   33.6840    8.0660  -11.4920 C   0  0  0  0  0  0  0  0  0  0  0  0
   32.1780    5.0440   -9.1230 N   0  0  0  0  0  0  0  0  0  0  0  0
   33.4460   12.2380  -10.1050 O   0  0  0  0  0  0  0  0  0  0  0  0
   31.2130    7.8240   -8.8150 C   0  0  0  0  0  0  0  0  0  0  0  0
   30.5390    4.3780   -7.7680 O   0  0  0  0  0  0  0  0  0  0  0  0
   30.8700    9.1290   -8.4430 C   0  0  0  0  0  0  0  0  0  0  0  0
   30.1640    9.3980   -7.2510 C   0  0  0  0  0  0  0  0  0  0  0  0
   29.7670    8.3200   -6.4170 C   0  0  0  0  0  0  0  0  0  0  0  0
   29.0470    8.6100   -5.2280 C   0  0  0  0  0  0  0  0  0  0  0  0
   28.7760    9.9430   -4.9150 C   0  0  0  0  0  0  0  0  0  0  0  0
   29.8360   10.7110   -6.8310 C   0  0  0  0  0  0  0  0  0  0  0  0
   30.2200   13.1010   -7.1900 C   0  0  0  0  0  0  0  0  0  0  0  0
   30.9440   13.9760   -8.2430 C   0  0  0  0  0  0  0  0  0  0  0  0
   30.2980   13.9520   -9.6270 C   0  0  0  0  0  0  0  0  0  0  0  0
   31.1340   12.9860  -10.4490 C   0  0  0  0  0  0  0  0  0  0  0  0
   32.4530   12.8370   -9.7010 C   0  0  0  0  0  0  0  0  0  0  0  0
   30.1080    7.0050   -6.8020 C   0  0  0  0  0  0  0  0  0  0  0  0
   30.8310    6.7470   -7.9790 C   0  0  0  0  0  0  0  0  0  0  0  0
   31.1610    5.2990   -8.2940 C   0  0  0  0  0  0  0  0  0  0  0  0
   33.0120   13.4970   -7.8190 H   0  0  0  0  0  0  0  0  0  0  0  0
   30.9950   15.0030   -7.8740 H   0  0  0  0  0  0  0  0  0  0  0  0
   29.8040    6.1960   -6.1510 H   0  0  0  0  0  0  0  0  0  0  0  0
   32.7240    9.4880  -10.2790 H   0  0  0  0  0  0  0  0  0  0  0  0
   31.1350    9.9760   -9.0540 H   0  0  0  0  0  0  0  0  0  0  0  0
   28.7160    7.8110   -4.5810 H   0  0  0  0  0  0  0  0  0  0  0  0
   28.2190   10.1890   -4.0230 H   0  0  0  0  0  0  0  0  0  0  0  0
   30.7370   13.1770   -6.2310 H   0  0  0  0  0  0  0  0  0  0  0  0
   29.1920   13.4340   -7.0470 H   0  0  0  0  0  0  0  0  0  0  0  0
   30.3850   14.9380  -10.0870 H   0  0  0  0  0  0  0  0  0  0  0  0
   29.2420   13.6850   -9.6120 H   0  0  0  0  0  0  0  0  0  0  0  0
   31.2860   13.3330  -11.4720 H   0  0  0  0  0  0  0  0  0  0  0  0
   30.6630   12.0040  -10.4910 H   0  0  0  0  0  0  0  0  0  0  0  0
   31.7180    9.7060  -12.5770 H   0  0  0  0  0  0  0  0  0  0  0  0
   30.9910    8.1080  -12.4100 H   0  0  0  0  0  0  0  0  0  0  0  0
   30.4710    9.4250  -11.3700 H   0  0  0  0  0  0  0  0  0  0  0  0
   32.6370    5.8120   -9.5930 H   0  0  0  0  0  0  0  0  0  0  0  0
   34.0580    8.7420  -12.2610 H   0  0  0  0  0  0  0  0  0  0  0  0
   32.4500    4.0930   -9.3330 H   0  0  0  0  0  0  0  0  0  0  0  0
   34.4730    7.9360  -10.7560 H   0  0  0  0  0  0  0  0  0  0  0  0
   33.5070    7.0910  -11.9390 H   0  0  0  0  0  0  0  0  0  0  0  0
  1 39  1  0  0  0  0
  1 40  1  0  0  0  0
  1 41  1  0  0  0  0
  2 17  4  0  0  0  0
  3  4  1  0  0  0  0
  1  4  1  0  0  0  0
  4  7  1  0  0  0  0
  4 29  1  0  0  0  0
  5 19  1  0  0  0  0
  5 22  1  0  0  0  0
  5 26  1  0  0  0  0
  6 18  1  0  0  0  0
  7 43  1  0  0  0  0
  7 45  1  0  0  0  0
  7 46  1  0  0  0  0
  8 25  1  0  0  0  0
  8 42  1  0  0  0  0
  8 44  1  0  0  0  0
  3 10  1  0  0  0  0
 10 12  4  0  0  0  0
 10 24  4  0  0  0  0
 12 30  1  0  0  0  0
 12 13  4  0  0  0  0
 13 17  4  0  0  0  0
 13 14  4  0  0  0  0
 14 15  4  0  0  0  0
 14 23  4  0  0  0  0
 15 31  1  0  0  0  0
  2 16  4  0  0  0  0
 15 16  4  0  0  0  0
 16 32  1  0  0  0  0
  6 17  1  0  0  0  0
 18 19  1  0  0  0  0
 18 33  1  0  0  0  0
 18 34  1  0  0  0  0
 19 27  1  0  0  0  0
 19 20  1  0  0  0  0
 20 21  1  0  0  0  0
 20 35  1  0  0  0  0
 20 36  1  0  0  0  0
 21 37  1  0  0  0  0
 21 38  1  0  0  0  0
  9 22  2  0  0  0  0
 21 22  1  0  0  0  0
 23 24  4  0  0  0  0
 23 28  1  0  0  0  0
 11 25  2  0  0  0  0
 24 25  1  0  0  0  0
M  END
>  <pdb_header>
HEADER    TRANSFERASE                             14-JAN-17   5UIT
TITLE     CRYSTAL STRUCTURE OF IRAK4 IN COMPLEX WITH COMPOUND 14
EXPDTA    X-RAY DIFFRACTION
REMARK   2 RESOLUTION.    1.84 ANGSTROMS
REMARK   3  R VALUE : 0.181000
REMARK   3  FREE R VALUE : 0.218000
REMARK   4 5UIT COMPLIES WITH FORMAT V. 3.30,
REMARK 200  TEMPERATURE           (KELVIN) : 173.00
REMARK 200  PH                             : NULL
REMARK 350 BIOMOLECULE: 1
REMARK 350 APPLY THE FOLLOWING TO CHAINS: A
REMARK 350   BIOMT1  1   1.000000 0.000000 0.000000   0.000000
REMARK 350   BIOMT2  1   0.000000 1.000000 0.000000   0.000000
REMARK 350   BIOMT3  1   0.000000 0.000000 1.000000   0.000000
REMARK 350 BIOMOLECULE: 2
REMARK 350 APPLY THE FOLLOWING TO CHAINS: B
REMARK 350   BIOMT1  1   1.000000 0.000000 0.000000   0.000000
REMARK 350   BIOMT2  1   0.000000 1.000000 0.000000   0.000000
REMARK 350   BIOMT3  1   0.000000 0.000000 1.000000   0.000000
REMARK 888
REMARK 888 WRITTEN BY MAESTRO (A PRODUCT OF SCHRODINGER, LLC)
HET    8CD  A 501      46
HETNAM     8CD 1-{[(2S)-5-OXOPYRROLIDIN-2-YL]METHOXY}-7-[(PROPAN-2- YL
HETNAM   2 8CD )OXY]ISOQUINOLINE-6-CARBOXAMIDE
FORMUL   1  8CD    C18 H21 N3 O4
CRYST1   91.140  118.580  139.630  90.00  90.00  90.00 I 2 2 2      16


$$$$
