complex
  PyMOL3.0          3D                             0

 46 48  0  0  0  0  0  0  0  0999 V2000
   28.2040   13.8960  -10.9890 C   0  0  0  0  0  0  0  0  0  0  0  0
   32.4180   13.2450   -8.6090 N   0  0  0  0  0  0  0  0  0  0  0  0
   33.5530   12.2570  -10.3620 O   0  0  0  0  0  0  0  0  0  0  0  0
   28.8760   13.6100   -9.6370 C   0  0  0  0  0  0  0  0  0  0  0  0
   29.3080   10.7000   -5.7920 N   0  0  0  0  0  0  0  0  0  0  0  0
   30.3920   11.5070   -7.7270 O   0  0  0  0  0  0  0  0  0  0  0  0
   30.3970   13.9120   -9.6090 C   0  0  0  0  0  0  0  0  0  0  0  0
   32.1140    4.8150   -9.4390 N   0  0  0  0  0  0  0  0  0  0  0  0
   30.4420    4.1240   -8.1320 O   0  0  0  0  0  0  0  0  0  0  0  0
   31.0980   13.7590   -8.2430 C   0  0  0  0  0  0  0  0  0  0  0  0
   31.7590    7.3360  -10.3230 O   0  0  0  0  0  0  0  0  0  0  0  0
   32.5690   12.8010   -9.8690 C   0  0  0  0  0  0  0  0  0  0  0  0
   31.2460   13.0820  -10.5740 C   0  0  0  0  0  0  0  0  0  0  0  0
   30.4140   12.8330   -7.2030 C   0  0  0  0  0  0  0  0  0  0  0  0
   29.9450   10.4460   -6.9660 C   0  0  0  0  0  0  0  0  0  0  0  0
   30.2000    9.1390   -7.4540 C   0  0  0  0  0  0  0  0  0  0  0  0
   30.8530    8.8860   -8.6820 C   0  0  0  0  0  0  0  0  0  0  0  0
   31.1290    7.5810   -9.1100 C   0  0  0  0  0  0  0  0  0  0  0  0
   30.7640    6.4940   -8.2820 C   0  0  0  0  0  0  0  0  0  0  0  0
   30.0820    6.7350   -7.0780 C   0  0  0  0  0  0  0  0  0  0  0  0
   29.7870    8.0450   -6.6470 C   0  0  0  0  0  0  0  0  0  0  0  0
   29.1060    8.3140   -5.4300 C   0  0  0  0  0  0  0  0  0  0  0  0
   28.8920    9.6400   -5.0590 C   0  0  0  0  0  0  0  0  0  0  0  0
   31.0800    5.0520   -8.6280 C   0  0  0  0  0  0  0  0  0  0  0  0
   32.1120    8.4160  -11.1850 C   0  0  0  0  0  0  0  0  0  0  0  0
   30.7090   11.8800  -10.8040 F   0  0  0  0  0  0  0  0  0  0  0  0
   33.1510   13.1640   -7.9170 H   0  0  0  0  0  0  0  0  0  0  0  0
   31.1410    9.7390   -9.2770 H   0  0  0  0  0  0  0  0  0  0  0  0
   29.7820    5.9160   -6.4380 H   0  0  0  0  0  0  0  0  0  0  0  0
   28.7640    7.5020   -4.8050 H   0  0  0  0  0  0  0  0  0  0  0  0
   28.3710    9.8720   -4.1410 H   0  0  0  0  0  0  0  0  0  0  0  0
   30.5030   14.9610   -9.8980 H   0  0  0  0  0  0  0  0  0  0  0  0
   31.2400   14.7450   -7.7970 H   0  0  0  0  0  0  0  0  0  0  0  0
   31.4010   13.5770  -11.5330 H   0  0  0  0  0  0  0  0  0  0  0  0
   32.6240    8.0230  -12.0620 H   0  0  0  0  0  0  0  0  0  0  0  0
   31.2290    8.9560  -11.5310 H   0  0  0  0  0  0  0  0  0  0  0  0
   32.7950    9.1180  -10.7030 H   0  0  0  0  0  0  0  0  0  0  0  0
   27.1360   13.6820  -10.9360 H   0  0  0  0  0  0  0  0  0  0  0  0
   28.3200   14.9390  -11.2840 H   0  0  0  0  0  0  0  0  0  0  0  0
   28.6180   13.2760  -11.7830 H   0  0  0  0  0  0  0  0  0  0  0  0
   28.6870   12.5740   -9.3610 H   0  0  0  0  0  0  0  0  0  0  0  0
   28.3890   14.2110   -8.8720 H   0  0  0  0  0  0  0  0  0  0  0  0
   32.3890    3.8680   -9.6630 H   0  0  0  0  0  0  0  0  0  0  0  0
   32.5850    5.5900   -9.8840 H   0  0  0  0  0  0  0  0  0  0  0  0
   29.4060   13.1790   -6.9700 H   0  0  0  0  0  0  0  0  0  0  0  0
   30.9810   12.8500   -6.2700 H   0  0  0  0  0  0  0  0  0  0  0  0
  1  4  1  0  0  0  0
  1 38  1  0  0  0  0
  1 39  1  0  0  0  0
  1 40  1  0  0  0  0
  2 12  1  0  0  0  0
  2 27  1  0  0  0  0
  4  7  1  0  0  0  0
  4 41  1  0  0  0  0
  4 42  1  0  0  0  0
  5 15  4  0  0  0  0
  5 23  4  0  0  0  0
  7 32  1  0  0  0  0
  8 24  1  0  0  0  0
  8 43  1  0  0  0  0
  8 44  1  0  0  0  0
  2 10  1  0  0  0  0
  7 10  1  0  0  0  0
 10 14  1  0  0  0  0
 10 33  1  0  0  0  0
  3 12  2  0  0  0  0
  7 13  1  0  0  0  0
 12 13  1  0  0  0  0
 13 26  1  0  0  0  0
 13 34  1  0  0  0  0
  6 14  1  0  0  0  0
 14 45  1  0  0  0  0
 14 46  1  0  0  0  0
  6 15  1  0  0  0  0
 15 16  4  0  0  0  0
 16 17  4  0  0  0  0
 16 21  4  0  0  0  0
 17 18  4  0  0  0  0
 17 28  1  0  0  0  0
 11 18  1  0  0  0  0
 18 19  4  0  0  0  0
 19 24  1  0  0  0  0
 19 20  4  0  0  0  0
 20 21  4  0  0  0  0
 20 29  1  0  0  0  0
 21 22  4  0  0  0  0
 22 30  1  0  0  0  0
 22 23  4  0  0  0  0
 23 31  1  0  0  0  0
  9 24  2  0  0  0  0
 11 25  1  0  0  0  0
 25 35  1  0  0  0  0
 25 36  1  0  0  0  0
 25 37  1  0  0  0  0
M  END
>  <pdb_header>
HEADER    SIGNALING PROTEIN                       18-OCT-23   8WTF
TITLE     THE CRYSTAL STRUCTURE OF IRAK4 FROM BIORTUS
EXPDTA    X-RAY DIFFRACTION
REMARK   2 RESOLUTION.    2.00 ANGSTROMS
REMARK   3  R VALUE : 0.180000
REMARK   3  FREE R VALUE : 0.236000
REMARK   4 8WTF COMPLIES WITH FORMAT V. 3.30,
REMARK 200  TEMPERATURE           (KELVIN) : 100.00
REMARK 200  PH                             : NULL
REMARK 350 BIOMOLECULE: 1
REMARK 350 APPLY THE FOLLOWING TO CHAINS: A
REMARK 350   BIOMT1  1   1.000000 0.000000 0.000000   0.000000
REMARK 350   BIOMT2  1   0.000000 1.000000 0.000000   0.000000
REMARK 350   BIOMT3  1   0.000000 0.000000 1.000000   0.000000
REMARK 888
REMARK 888 WRITTEN BY MAESTRO (A PRODUCT OF SCHRODINGER, LLC)
HET    8CG  A 501      46
HETNAM     8CG 1-{[(2S,3S,4S)-3-ETHYL-4-FLUORO-5-OXOPYRROLIDIN-2- YL]M
HETNAM   2 8CG ETHOXY}-7-METHOXYISOQUINOLINE-6-CARBOXAMIDE
FORMUL   1  8CG    C18 H20 F N3 O4
CRYST1   51.449   93.061   60.925  90.00  99.15  90.00 C 1 2 1       4


$$$$
