# created with PyMOL 3.0.0
@<TRIPOS>MOLECULE
complex
46 48 1                 
SMALL
USER_CHARGES
@<TRIPOS>ATOM
1	  C1	28.204	13.896	-10.989	C.3	1	8CG501	0.000	
2	  N1	32.418	13.245	-8.609	N.pl3	1	8CG501	0.000	
3	  O1	33.553	12.257	-10.362	O.2	1	8CG501	0.000	
4	  C2	28.876	13.610	-9.637	C.3	1	8CG501	0.000	
5	  N2	29.308	10.700	-5.792	N.2	1	8CG501	0.000	
6	  O2	30.392	11.507	-7.727	O.3	1	8CG501	0.000	
7	  C3	30.397	13.912	-9.609	C.3	1	8CG501	0.000	
8	  N3	32.114	4.815	-9.439	N.pl3	1	8CG501	0.000	
9	  O3	30.442	4.124	-8.132	O.2	1	8CG501	0.000	
10	  C4	31.098	13.759	-8.243	C.3	1	8CG501	0.000	
11	  O4	31.759	7.336	-10.323	O.3	1	8CG501	0.000	
12	  C5	32.569	12.801	-9.869	C.2	1	8CG501	0.000	
13	  C6	31.246	13.082	-10.574	C.3	1	8CG501	0.000	
14	  C7	30.414	12.833	-7.203	C.3	1	8CG501	0.000	
15	  C8	29.945	10.446	-6.966	C.2	1	8CG501	0.000	
16	  C9	30.200	9.139	-7.454	C.2	1	8CG501	0.000	
17	 C10	30.853	8.886	-8.682	C.2	1	8CG501	0.000	
18	 C11	31.129	7.581	-9.110	C.2	1	8CG501	0.000	
19	 C12	30.764	6.494	-8.282	C.2	1	8CG501	0.000	
20	 C13	30.082	6.735	-7.078	C.2	1	8CG501	0.000	
21	 C14	29.787	8.045	-6.647	C.2	1	8CG501	0.000	
22	 C15	29.106	8.314	-5.430	C.2	1	8CG501	0.000	
23	 C16	28.892	9.640	-5.059	C.2	1	8CG501	0.000	
24	 C17	31.080	5.052	-8.628	C.2	1	8CG501	0.000	
25	 C18	32.112	8.416	-11.185	C.3	1	8CG501	0.000	
26	  F1	30.709	11.880	-10.804	 F	1	8CG501	0.000	
27	 HN1	33.151	13.164	-7.917	 H	1	8CG501	0.000	
28	HC10	31.141	9.739	-9.277	 H	1	8CG501	0.000	
29	HC13	29.782	5.916	-6.438	 H	1	8CG501	0.000	
30	HC15	28.764	7.502	-4.805	 H	1	8CG501	0.000	
31	HC16	28.371	9.872	-4.141	 H	1	8CG501	0.000	
32	 HC3	30.503	14.961	-9.898	 H	1	8CG501	0.000	
33	 HC4	31.240	14.745	-7.797	 H	1	8CG501	0.000	
34	 HC6	31.401	13.577	-11.533	 H	1	8CG501	0.000	
35	H181	32.624	8.023	-12.062	 H	1	8CG501	0.000	
36	H182	31.229	8.956	-11.531	 H	1	8CG501	0.000	
37	H183	32.795	9.118	-10.703	 H	1	8CG501	0.000	
38	H1_1	27.136	13.682	-10.936	 H	1	8CG501	0.000	
39	H1_2	28.320	14.939	-11.284	 H	1	8CG501	0.000	
40	H1_3	28.618	13.276	-11.783	 H	1	8CG501	0.000	
41	H2_1	28.687	12.574	-9.361	 H	1	8CG501	0.000	
42	H2_2	28.389	14.211	-8.872	 H	1	8CG501	0.000	
43	H3_1	32.389	3.868	-9.663	 H	1	8CG501	0.000	
44	H3_2	32.585	5.590	-9.884	 H	1	8CG501	0.000	
45	H7_1	29.406	13.179	-6.970	 H	1	8CG501	0.000	
46	H7_2	30.981	12.850	-6.270	 H	1	8CG501	0.000	
@<TRIPOS>BOND
1 1 4 1
2 1 38 1
3 1 39 1
4 1 40 1
5 2 12 1
6 2 27 1
7 4 7 1
8 4 41 1
9 4 42 1
10 5 15 ar
11 5 23 ar
12 7 32 1
13 8 24 1
14 8 43 1
15 8 44 1
16 2 10 1
17 7 10 1
18 10 14 1
19 10 33 1
20 3 12 2
21 7 13 1
22 12 13 1
23 13 26 1
24 13 34 1
25 6 14 1
26 14 45 1
27 14 46 1
28 6 15 1
29 15 16 ar
30 16 17 ar
31 16 21 ar
32 17 18 ar
33 17 28 1
34 11 18 1
35 18 19 ar
36 19 24 1
37 19 20 ar
38 20 21 ar
39 20 29 1
40 21 22 ar
41 22 30 1
42 22 23 ar
43 23 31 1
44 9 24 2
45 11 25 1
46 25 35 1
47 25 36 1
48 25 37 1
@<TRIPOS>SUBSTRUCTURE
1	8CG501	1	GROUP	1 A	8CG
