complex
  PyMOL3.0          3D                             0

 52 56  0  0  0  0  0  0  0  0999 V2000
   25.2150    5.0150   -2.5360 C   0  0  0  0  0  0  0  0  0  0  0  0
   26.6960    5.3220   -2.2290 C   0  0  0  0  0  0  0  0  0  0  0  0
   27.6510    4.5830   -3.1920 C   0  0  0  0  0  0  0  0  0  0  0  0
   28.0150    5.6530   -4.1670 C   0  0  0  0  0  0  0  0  0  0  0  0
   28.7860    5.6340   -5.3230 C   0  0  0  0  0  0  0  0  0  0  0  0
   29.0730    6.8330   -6.0070 C   0  0  0  0  0  0  0  0  0  0  0  0
   28.5720    8.0580   -5.4970 C   0  0  0  0  0  0  0  0  0  0  0  0
   27.8160    8.0560   -4.3120 C   0  0  0  0  0  0  0  0  0  0  0  0
   27.5510    6.8500   -3.6760 C   0  0  0  0  0  0  0  0  0  0  0  0
   26.8540    6.7210   -2.5020 O   0  0  0  0  0  0  0  0  0  0  0  0
   28.8570    9.2650   -6.1290 N   0  0  0  0  0  0  0  0  0  0  0  0
   27.7130   10.0490   -6.6190 C   0  0  0  0  0  0  0  0  0  0  0  0
   28.1690   11.2270   -7.5050 C   0  0  0  0  0  0  0  0  0  0  0  0
   29.0210   12.0810   -6.7570 O   0  0  0  0  0  0  0  0  0  0  0  0
   30.1710   11.3930   -6.2820 C   0  0  0  0  0  0  0  0  0  0  0  0
   29.7390   10.1950   -5.4030 C   0  0  0  0  0  0  0  0  0  0  0  0
   29.8700    6.8790   -7.1770 N   0  0  0  0  0  0  0  0  0  0  0  0
   30.4220    5.8780   -7.8930 C   0  0  0  0  0  0  0  0  0  0  0  0
   30.2720    4.6730   -7.6900 O   0  0  0  0  0  0  0  0  0  0  0  0
   31.2700    6.3360   -8.9580 C   0  0  0  0  0  0  0  0  0  0  0  0
   32.2010    5.5300   -9.6280 C   0  0  0  0  0  0  0  0  0  0  0  0
   32.9060    6.1390  -10.5570 N   0  0  0  0  0  0  0  0  0  0  0  0
   32.4220    7.3940  -10.5760 N   0  0  0  0  0  0  0  0  0  0  0  0
   31.4040    7.5890   -9.6270 C   0  0  0  0  0  0  0  0  0  0  0  0
   30.8090    8.7850   -9.4910 N   0  0  0  0  0  0  0  0  0  0  0  0
   31.2430    9.7930  -10.3000 C   0  0  0  0  0  0  0  0  0  0  0  0
   32.2420    9.6460  -11.2620 C   0  0  0  0  0  0  0  0  0  0  0  0
   32.8510    8.4030  -11.3950 C   0  0  0  0  0  0  0  0  0  0  0  0
   27.0440    5.0990   -0.7460 C   0  0  0  0  0  0  0  0  0  0  0  0
   30.0710    7.8150   -7.4990 H   0  0  0  0  0  0  0  0  0  0  0  0
   32.3750    4.4890   -9.4110 H   0  0  0  0  0  0  0  0  0  0  0  0
   30.7670   10.7520  -10.1620 H   0  0  0  0  0  0  0  0  0  0  0  0
   32.5420   10.4740  -11.8840 H   0  0  0  0  0  0  0  0  0  0  0  0
   33.6400    8.1850  -12.1000 H   0  0  0  0  0  0  0  0  0  0  0  0
   29.1610    4.6800   -5.6510 H   0  0  0  0  0  0  0  0  0  0  0  0
   27.4460    8.9810   -3.8950 H   0  0  0  0  0  0  0  0  0  0  0  0
   27.0640    9.4000   -7.2080 H   0  0  0  0  0  0  0  0  0  0  0  0
   27.1150   10.4130   -5.7830 H   0  0  0  0  0  0  0  0  0  0  0  0
   27.3120   11.8000   -7.8540 H   0  0  0  0  0  0  0  0  0  0  0  0
   28.6890   10.8690   -8.3920 H   0  0  0  0  0  0  0  0  0  0  0  0
   30.7750   12.0880   -5.7010 H   0  0  0  0  0  0  0  0  0  0  0  0
   30.7870   11.0660   -7.1210 H   0  0  0  0  0  0  0  0  0  0  0  0
   30.6320    9.6550   -5.0840 H   0  0  0  0  0  0  0  0  0  0  0  0
   29.2530   10.5490   -4.4910 H   0  0  0  0  0  0  0  0  0  0  0  0
   26.4060    5.6970   -0.0950 H   0  0  0  0  0  0  0  0  0  0  0  0
   26.9240    4.0530   -0.4630 H   0  0  0  0  0  0  0  0  0  0  0  0
   28.0760    5.3830   -0.5360 H   0  0  0  0  0  0  0  0  0  0  0  0
   24.5520    5.6160   -1.9140 H   0  0  0  0  0  0  0  0  0  0  0  0
   24.9700    5.2330   -3.5760 H   0  0  0  0  0  0  0  0  0  0  0  0
   24.9800    3.9660   -2.3530 H   0  0  0  0  0  0  0  0  0  0  0  0
   28.5560    4.2690   -2.6720 H   0  0  0  0  0  0  0  0  0  0  0  0
   27.1980    3.6980   -3.6370 H   0  0  0  0  0  0  0  0  0  0  0  0
  1  2  1  0  0  0  0
  1 48  1  0  0  0  0
  1 49  1  0  0  0  0
  1 50  1  0  0  0  0
  2 10  1  0  0  0  0
  2 29  1  0  0  0  0
  2  3  1  0  0  0  0
  3 51  1  0  0  0  0
  3 52  1  0  0  0  0
  3  4  1  0  0  0  0
  4  5  4  0  0  0  0
  4  9  4  0  0  0  0
  5  6  4  0  0  0  0
  5 35  1  0  0  0  0
  6  7  4  0  0  0  0
  6 17  1  0  0  0  0
  7  8  4  0  0  0  0
  7 11  1  0  0  0  0
  8  9  4  0  0  0  0
  8 36  1  0  0  0  0
  9 10  1  0  0  0  0
 11 16  1  0  0  0  0
 11 12  1  0  0  0  0
 12 13  1  0  0  0  0
 12 37  1  0  0  0  0
 12 38  1  0  0  0  0
 13 14  1  0  0  0  0
 13 39  1  0  0  0  0
 13 40  1  0  0  0  0
 14 15  1  0  0  0  0
 15 16  1  0  0  0  0
 15 41  1  0  0  0  0
 15 42  1  0  0  0  0
 16 43  1  0  0  0  0
 16 44  1  0  0  0  0
 17 18  1  0  0  0  0
 17 30  1  0  0  0  0
 18 19  2  0  0  0  0
 18 20  1  0  0  0  0
 20 21  4  0  0  0  0
 20 24  4  0  0  0  0
 21 22  4  0  0  0  0
 21 31  1  0  0  0  0
 22 23  4  0  0  0  0
 23 24  4  0  0  0  0
 23 28  4  0  0  0  0
 24 25  4  0  0  0  0
 25 26  4  0  0  0  0
 26 27  4  0  0  0  0
 26 32  1  0  0  0  0
 27 28  4  0  0  0  0
 27 33  1  0  0  0  0
 28 34  1  0  0  0  0
 29 45  1  0  0  0  0
 29 46  1  0  0  0  0
 29 47  1  0  0  0  0
M  END
>  <pdb_header>
HEADER    TRANSFERASE/TRANSFERASE INHIBITOR       12-MAR-19   6O8U
TITLE     CRYSTAL STRUCTURE OF IRAK4 IN COMPLEX WITH COMPOUND 23
EXPDTA    X-RAY DIFFRACTION
REMARK   2 RESOLUTION.    1.80 ANGSTROMS
REMARK   3  R VALUE : 0.231000
REMARK   3  FREE R VALUE : 0.255000
REMARK   4 6O8U COMPLIES WITH FORMAT V. 3.30,
REMARK 200  TEMPERATURE           (KELVIN) : 93.00
REMARK 200  PH                             : 7.00
REMARK 350 BIOMOLECULE: 1
REMARK 350 APPLY THE FOLLOWING TO CHAINS: A
REMARK 350   BIOMT1  1   1.000000 0.000000 0.000000   0.000000
REMARK 350   BIOMT2  1   0.000000 1.000000 0.000000   0.000000
REMARK 350   BIOMT3  1   0.000000 0.000000 1.000000   0.000000
REMARK 350 BIOMOLECULE: 2
REMARK 350 APPLY THE FOLLOWING TO CHAINS: B
REMARK 350   BIOMT1  1   1.000000 0.000000 0.000000   0.000000
REMARK 350   BIOMT2  1   0.000000 1.000000 0.000000   0.000000
REMARK 350   BIOMT3  1   0.000000 0.000000 1.000000   0.000000
REMARK 350 BIOMOLECULE: 3
REMARK 350 APPLY THE FOLLOWING TO CHAINS: C
REMARK 350   BIOMT1  1   1.000000 0.000000 0.000000   0.000000
REMARK 350   BIOMT2  1   0.000000 1.000000 0.000000   0.000000
REMARK 350   BIOMT3  1   0.000000 0.000000 1.000000   0.000000
REMARK 350 BIOMOLECULE: 4
REMARK 350 APPLY THE FOLLOWING TO CHAINS: D
REMARK 350   BIOMT1  1   1.000000 0.000000 0.000000   0.000000
REMARK 350   BIOMT2  1   0.000000 1.000000 0.000000   0.000000
REMARK 350   BIOMT3  1   0.000000 0.000000 1.000000   0.000000
REMARK 888
REMARK 888 WRITTEN BY MAESTRO (A PRODUCT OF SCHRODINGER, LLC)
HET    LS7  A 501      52
HETNAM     LS7 N-[2,2-DIMETHYL-6-(MORPHOLIN-4-YL)-2,3-DIHYDRO-1- BENZO
HETNAM   2 LS7 FURAN-5-YL]PYRAZOLO[1,5-A]PYRIMIDINE-3- CARBOXAMIDE
FORMUL   1  LS7    C21 H23 N5 O3
CRYST1  142.119  140.511   87.518  90.00 123.97  90.00 C 1 2 1      16


$$$$
