# created with PyMOL 3.0.0
@<TRIPOS>MOLECULE
complex
52 56 1                 
SMALL
USER_CHARGES
@<TRIPOS>ATOM
1	  C1	25.215	5.015	-2.536	C.3	1	LS7501	0.000	
2	  C2	26.696	5.322	-2.229	C.3	1	LS7501	0.000	
3	  C3	27.651	4.583	-3.192	C.3	1	LS7501	0.000	
4	  C4	28.015	5.653	-4.167	C.2	1	LS7501	0.000	
5	  C5	28.786	5.634	-5.323	C.2	1	LS7501	0.000	
6	  C6	29.073	6.833	-6.007	C.2	1	LS7501	0.000	
7	  C7	28.572	8.058	-5.497	C.2	1	LS7501	0.000	
8	  C8	27.816	8.056	-4.312	C.2	1	LS7501	0.000	
9	  C9	27.551	6.850	-3.676	C.2	1	LS7501	0.000	
10	 O10	26.854	6.721	-2.502	O.3	1	LS7501	0.000	
11	 N11	28.857	9.265	-6.129	N.pl3	1	LS7501	0.000	
12	 C12	27.713	10.049	-6.619	C.3	1	LS7501	0.000	
13	 C13	28.169	11.227	-7.505	C.3	1	LS7501	0.000	
14	 O14	29.021	12.081	-6.757	O.3	1	LS7501	0.000	
15	 C15	30.171	11.393	-6.282	C.3	1	LS7501	0.000	
16	 C16	29.739	10.195	-5.403	C.3	1	LS7501	0.000	
17	 N17	29.870	6.879	-7.177	N.pl3	1	LS7501	0.000	
18	 C18	30.422	5.878	-7.893	C.2	1	LS7501	0.000	
19	 O19	30.272	4.673	-7.690	O.2	1	LS7501	0.000	
20	 C20	31.270	6.336	-8.958	C.2	1	LS7501	0.000	
21	 C21	32.201	5.530	-9.628	C.2	1	LS7501	0.000	
22	 N22	32.906	6.139	-10.557	N.2	1	LS7501	0.000	
23	 N23	32.422	7.394	-10.576	N.2	1	LS7501	0.000	
24	 C24	31.404	7.589	-9.627	C.2	1	LS7501	0.000	
25	 N25	30.809	8.785	-9.491	N.2	1	LS7501	0.000	
26	 C26	31.243	9.793	-10.300	C.2	1	LS7501	0.000	
27	 C27	32.242	9.646	-11.262	C.2	1	LS7501	0.000	
28	 C28	32.851	8.403	-11.395	C.2	1	LS7501	0.000	
29	 C29	27.044	5.099	-0.746	C.3	1	LS7501	0.000	
30	HN17	30.071	7.815	-7.499	 H	1	LS7501	0.000	
31	HC21	32.375	4.489	-9.411	 H	1	LS7501	0.000	
32	HC26	30.767	10.752	-10.162	 H	1	LS7501	0.000	
33	HC27	32.542	10.474	-11.884	 H	1	LS7501	0.000	
34	HC28	33.640	8.185	-12.100	 H	1	LS7501	0.000	
35	 HC5	29.161	4.680	-5.651	 H	1	LS7501	0.000	
36	 HC8	27.446	8.981	-3.895	 H	1	LS7501	0.000	
37	H121	27.064	9.400	-7.208	 H	1	LS7501	0.000	
38	H122	27.115	10.413	-5.783	 H	1	LS7501	0.000	
39	H131	27.312	11.800	-7.854	 H	1	LS7501	0.000	
40	H132	28.689	10.869	-8.392	 H	1	LS7501	0.000	
41	H151	30.775	12.088	-5.701	 H	1	LS7501	0.000	
42	H152	30.787	11.066	-7.121	 H	1	LS7501	0.000	
43	H161	30.632	9.655	-5.084	 H	1	LS7501	0.000	
44	H162	29.253	10.549	-4.491	 H	1	LS7501	0.000	
45	H291	26.406	5.697	-0.095	 H	1	LS7501	0.000	
46	H292	26.924	4.053	-0.463	 H	1	LS7501	0.000	
47	H293	28.076	5.383	-0.536	 H	1	LS7501	0.000	
48	H1_1	24.552	5.616	-1.914	 H	1	LS7501	0.000	
49	H1_2	24.970	5.233	-3.576	 H	1	LS7501	0.000	
50	H1_3	24.980	3.966	-2.353	 H	1	LS7501	0.000	
51	H3_1	28.556	4.269	-2.672	 H	1	LS7501	0.000	
52	H3_2	27.198	3.698	-3.637	 H	1	LS7501	0.000	
@<TRIPOS>BOND
1 1 2 1
2 1 48 1
3 1 49 1
4 1 50 1
5 2 10 1
6 2 29 1
7 2 3 1
8 3 51 1
9 3 52 1
10 3 4 1
11 4 5 ar
12 4 9 ar
13 5 6 ar
14 5 35 1
15 6 7 ar
16 6 17 1
17 7 8 ar
18 7 11 1
19 8 9 ar
20 8 36 1
21 9 10 1
22 11 16 1
23 11 12 1
24 12 13 1
25 12 37 1
26 12 38 1
27 13 14 1
28 13 39 1
29 13 40 1
30 14 15 1
31 15 16 1
32 15 41 1
33 15 42 1
34 16 43 1
35 16 44 1
36 17 18 1
37 17 30 1
38 18 19 2
39 18 20 1
40 20 21 ar
41 20 24 ar
42 21 22 ar
43 21 31 1
44 22 23 ar
45 23 24 ar
46 23 28 ar
47 24 25 ar
48 25 26 ar
49 26 27 ar
50 26 32 1
51 27 28 ar
52 27 33 1
53 28 34 1
54 29 45 1
55 29 46 1
56 29 47 1
@<TRIPOS>SUBSTRUCTURE
1	LS7501	1	GROUP	1 A	LS7
