complex
  PyMOL3.0          3D                             0

 49 52  0  0  0  0  0  0  0  0999 V2000
   28.9940    9.6570   -4.7300 C   0  0  0  0  0  0  0  0  0  0  0  0
   33.4060    6.4270  -10.6210 C   0  0  0  0  0  0  0  0  0  0  0  0
   32.0550   12.0470   -8.9440 C   0  0  0  0  0  0  0  0  0  0  0  0
   32.7040    5.7150   -9.6510 C   0  0  0  0  0  0  0  0  0  0  0  0
   33.2640    7.8110  -10.7020 C   0  0  0  0  0  0  0  0  0  0  0  0
   31.8840   10.7250   -8.5860 C   0  0  0  0  0  0  0  0  0  0  0  0
   28.6510    4.6270   -4.0980 C   0  0  0  0  0  0  0  0  0  0  0  0
   29.4150    4.8480   -5.2390 C   0  0  0  0  0  0  0  0  0  0  0  0
   28.3270    6.9980   -3.8500 C   0  0  0  0  0  0  0  0  0  0  0  0
   25.0980    5.9110   -1.0850 C   0  0  0  0  0  0  0  0  0  0  0  0
   26.6040    4.3680   -0.1440 C   0  0  0  0  0  0  0  0  0  0  0  0
   25.8490    5.8760   -2.4330 C   0  0  0  0  0  0  0  0  0  0  0  0
   27.3830    4.2710   -1.4730 C   0  0  0  0  0  0  0  0  0  0  0  0
   31.0880    5.6730   -7.6990 C   0  0  0  0  0  0  0  0  0  0  0  0
   28.0900    5.6960   -3.3910 C   0  0  0  0  0  0  0  0  0  0  0  0
   31.8730    6.4130   -8.7630 C   0  0  0  0  0  0  0  0  0  0  0  0
   32.4600    8.4660   -9.7620 C   0  0  0  0  0  0  0  0  0  0  0  0
   29.6530    6.1520   -5.6910 C   0  0  0  0  0  0  0  0  0  0  0  0
   32.3680    9.9600   -9.6670 C   0  0  0  0  0  0  0  0  0  0  0  0
   32.6030   11.9960  -10.1950 N   0  0  0  0  0  0  0  0  0  0  0  0
   31.7640    7.7740   -8.8210 N   0  0  0  0  0  0  0  0  0  0  0  0
   30.4290    6.4630   -6.8220 N   0  0  0  0  0  0  0  0  0  0  0  0
   32.7920   10.7480  -10.6390 N   0  0  0  0  0  0  0  0  0  0  0  0
   31.0850    4.4420   -7.6720 O   0  0  0  0  0  0  0  0  0  0  0  0
   25.2410    4.6680   -0.4110 O   0  0  0  0  0  0  0  0  0  0  0  0
   29.3850    8.5120   -5.4770 O   0  0  0  0  0  0  0  0  0  0  0  0
   29.1140    7.2430   -4.9890 C   0  0  0  0  0  0  0  0  0  0  0  0
   27.2650    5.4910   -2.2910 N   0  0  0  0  0  0  0  0  0  0  0  0
   32.8540   12.8080  -10.7460 H   0  0  0  0  0  0  0  0  0  0  0  0
   30.5140    7.4570   -6.9850 H   0  0  0  0  0  0  0  0  0  0  0  0
   29.2990   10.5560   -5.2660 H   0  0  0  0  0  0  0  0  0  0  0  0
   27.9140    9.7060   -4.5940 H   0  0  0  0  0  0  0  0  0  0  0  0
   29.4850    9.6720   -3.7580 H   0  0  0  0  0  0  0  0  0  0  0  0
   24.0360    6.1000   -1.2510 H   0  0  0  0  0  0  0  0  0  0  0  0
   25.4680    6.7300   -0.4680 H   0  0  0  0  0  0  0  0  0  0  0  0
   26.6550    3.4180    0.3880 H   0  0  0  0  0  0  0  0  0  0  0  0
   27.0420    5.1180    0.5180 H   0  0  0  0  0  0  0  0  0  0  0  0
   25.7800    6.8680   -2.8800 H   0  0  0  0  0  0  0  0  0  0  0  0
   25.3560    5.1920   -3.1260 H   0  0  0  0  0  0  0  0  0  0  0  0
   27.0410    3.4060   -2.0430 H   0  0  0  0  0  0  0  0  0  0  0  0
   28.4370    4.1030   -1.2460 H   0  0  0  0  0  0  0  0  0  0  0  0
   34.0640    5.9120  -11.3030 H   0  0  0  0  0  0  0  0  0  0  0  0
   31.8560   12.9850   -8.4450 H   0  0  0  0  0  0  0  0  0  0  0  0
   32.8080    4.6410   -9.5990 H   0  0  0  0  0  0  0  0  0  0  0  0
   33.7930    8.3580  -11.4640 H   0  0  0  0  0  0  0  0  0  0  0  0
   31.4850   10.3550   -7.6530 H   0  0  0  0  0  0  0  0  0  0  0  0
   28.4880    3.6080   -3.7830 H   0  0  0  0  0  0  0  0  0  0  0  0
   29.8090    3.9820   -5.7460 H   0  0  0  0  0  0  0  0  0  0  0  0
   27.8920    7.8220   -3.3020 H   0  0  0  0  0  0  0  0  0  0  0  0
  1 31  1  0  0  0  0
  1 32  1  0  0  0  0
  1 33  1  0  0  0  0
  2  5  4  0  0  0  0
  2 42  1  0  0  0  0
  3  6  4  0  0  0  0
  3 43  1  0  0  0  0
  2  4  4  0  0  0  0
  4 44  1  0  0  0  0
  5 17  4  0  0  0  0
  5 45  1  0  0  0  0
  6 46  1  0  0  0  0
  7  8  4  0  0  0  0
  7 47  1  0  0  0  0
  8 18  4  0  0  0  0
  8 48  1  0  0  0  0
  9 27  4  0  0  0  0
  9 49  1  0  0  0  0
 10 25  1  0  0  0  0
 10 34  1  0  0  0  0
 10 35  1  0  0  0  0
 11 13  1  0  0  0  0
 11 36  1  0  0  0  0
 11 37  1  0  0  0  0
 10 12  1  0  0  0  0
 12 28  1  0  0  0  0
 12 38  1  0  0  0  0
 12 39  1  0  0  0  0
 13 28  1  0  0  0  0
 13 40  1  0  0  0  0
 13 41  1  0  0  0  0
 14 16  1  0  0  0  0
 14 24  2  0  0  0  0
  7 15  4  0  0  0  0
  9 15  4  0  0  0  0
  4 16  4  0  0  0  0
 16 21  4  0  0  0  0
 17 19  1  0  0  0  0
 18 22  1  0  0  0  0
  6 19  4  0  0  0  0
 19 23  4  0  0  0  0
  3 20  4  0  0  0  0
 20 29  1  0  0  0  0
 17 21  4  0  0  0  0
 14 22  1  0  0  0  0
 22 30  1  0  0  0  0
 20 23  4  0  0  0  0
 11 25  1  0  0  0  0
  1 26  1  0  0  0  0
 18 27  4  0  0  0  0
 26 27  1  0  0  0  0
 15 28  1  0  0  0  0
M  END
>  <pdb_header>
HEADER    TRANSFERASE/TRANSFERASE INHIBITOR       19-AUG-18   6EGE
TITLE     CRYSTAL STRUCTURE OF THE UNPHOSPHORYLATED IRAK4 KINASE
TITLE    2 DOMAIN BOUND TO A TYPE I INHIBITOR
EXPDTA    X-RAY DIFFRACTION
REMARK   2 RESOLUTION.    1.40 ANGSTROMS
REMARK   3  R VALUE : 0.178000
REMARK   3  FREE R VALUE : 0.201000
REMARK   4 6EGE COMPLIES WITH FORMAT V. 3.30,
REMARK 200  TEMPERATURE           (KELVIN) : 100.00
REMARK 200  PH                             : NULL
REMARK 350 BIOMOLECULE: 1
REMARK 350 APPLY THE FOLLOWING TO CHAINS: D, A
REMARK 350   BIOMT1  1   1.000000 0.000000 0.000000   0.000000
REMARK 350   BIOMT2  1   0.000000 1.000000 0.000000   0.000000
REMARK 350   BIOMT3  1   0.000000 0.000000 1.000000   0.000000
REMARK 888
REMARK 888 WRITTEN BY MAESTRO (A PRODUCT OF SCHRODINGER, LLC)
HET    DL1  A 501      49
HETNAM     DL1 N-[2-METHOXY-4-(MORPHOLIN-4-YL)PHENYL]-6-(1H-PYRAZOL-5-
HETNAM   2 DL1  YL)PYRIDINE-2-CARBOXAMIDE
FORMUL   1  DL1    C20 H21 N5 O3
CRYST1   70.888   58.553   76.101  90.00 112.78  90.00 P 1 21 1      4


$$$$
