# created with PyMOL 3.0.0
@<TRIPOS>MOLECULE
complex
49 52 1                 
SMALL
USER_CHARGES
@<TRIPOS>ATOM
1	 CAA	28.994	9.657	-4.730	C.3	1	DL1501	0.000	
2	 CAC	33.406	6.427	-10.621	C.2	1	DL1501	0.000	
3	 CAD	32.055	12.047	-8.944	C.2	1	DL1501	0.000	
4	 CAE	32.704	5.715	-9.651	C.2	1	DL1501	0.000	
5	 CAF	33.264	7.811	-10.702	C.2	1	DL1501	0.000	
6	 CAG	31.884	10.725	-8.586	C.2	1	DL1501	0.000	
7	 CAH	28.651	4.627	-4.098	C.2	1	DL1501	0.000	
8	 CAI	29.415	4.848	-5.239	C.2	1	DL1501	0.000	
9	 CAJ	28.327	6.998	-3.850	C.2	1	DL1501	0.000	
10	 CAK	25.098	5.911	-1.085	C.3	1	DL1501	0.000	
11	 CAL	26.604	4.368	-0.144	C.3	1	DL1501	0.000	
12	 CAM	25.849	5.876	-2.433	C.3	1	DL1501	0.000	
13	 CAN	27.383	4.271	-1.473	C.3	1	DL1501	0.000	
14	 CAU	31.088	5.673	-7.699	C.2	1	DL1501	0.000	
15	 CAV	28.090	5.696	-3.391	C.2	1	DL1501	0.000	
16	 CAW	31.873	6.413	-8.763	C.2	1	DL1501	0.000	
17	 CAX	32.460	8.466	-9.762	C.2	1	DL1501	0.000	
18	 CAY	29.653	6.152	-5.691	C.2	1	DL1501	0.000	
19	 CAZ	32.368	9.960	-9.667	C.2	1	DL1501	0.000	
20	 NAO	32.603	11.996	-10.195	N.2	1	DL1501	0.000	
21	 NAP	31.764	7.774	-8.821	N.2	1	DL1501	0.000	
22	 NAQ	30.429	6.463	-6.822	N.pl3	1	DL1501	0.000	
23	 NAR	32.792	10.748	-10.639	N.2	1	DL1501	0.000	
24	 OAB	31.085	4.442	-7.672	O.2	1	DL1501	0.000	
25	 OAS	25.241	4.668	-0.411	O.3	1	DL1501	0.000	
26	 OAT	29.385	8.512	-5.477	O.3	1	DL1501	0.000	
27	 CBA	29.114	7.243	-4.989	C.2	1	DL1501	0.000	
28	 NBB	27.265	5.491	-2.291	N.pl3	1	DL1501	0.000	
29	HNAO	32.854	12.808	-10.746	 H	1	DL1501	0.000	
30	HNAQ	30.514	7.457	-6.985	 H	1	DL1501	0.000	
31	HAA1	29.299	10.556	-5.266	 H	1	DL1501	0.000	
32	HAA2	27.914	9.706	-4.594	 H	1	DL1501	0.000	
33	HAA3	29.485	9.672	-3.758	 H	1	DL1501	0.000	
34	HAK1	24.036	6.100	-1.251	 H	1	DL1501	0.000	
35	HAK2	25.468	6.730	-0.468	 H	1	DL1501	0.000	
36	HAL1	26.655	3.418	0.388	 H	1	DL1501	0.000	
37	HAL2	27.042	5.118	0.518	 H	1	DL1501	0.000	
38	HAM1	25.780	6.868	-2.880	 H	1	DL1501	0.000	
39	HAM2	25.356	5.192	-3.126	 H	1	DL1501	0.000	
40	HAN1	27.041	3.406	-2.043	 H	1	DL1501	0.000	
41	HAN2	28.437	4.103	-1.246	 H	1	DL1501	0.000	
42	HCAC	34.064	5.912	-11.303	 H	1	DL1501	0.000	
43	HCAD	31.856	12.985	-8.445	 H	1	DL1501	0.000	
44	HCAE	32.808	4.641	-9.599	 H	1	DL1501	0.000	
45	HCAF	33.793	8.358	-11.464	 H	1	DL1501	0.000	
46	HCAG	31.485	10.355	-7.653	 H	1	DL1501	0.000	
47	HCAH	28.488	3.608	-3.783	 H	1	DL1501	0.000	
48	HCAI	29.809	3.982	-5.746	 H	1	DL1501	0.000	
49	HCAJ	27.892	7.822	-3.302	 H	1	DL1501	0.000	
@<TRIPOS>BOND
1 1 31 1
2 1 32 1
3 1 33 1
4 2 5 ar
5 2 42 1
6 3 6 ar
7 3 43 1
8 2 4 ar
9 4 44 1
10 5 17 ar
11 5 45 1
12 6 46 1
13 7 8 ar
14 7 47 1
15 8 18 ar
16 8 48 1
17 9 27 ar
18 9 49 1
19 10 25 1
20 10 34 1
21 10 35 1
22 11 13 1
23 11 36 1
24 11 37 1
25 10 12 1
26 12 28 1
27 12 38 1
28 12 39 1
29 13 28 1
30 13 40 1
31 13 41 1
32 14 16 1
33 14 24 2
34 7 15 ar
35 9 15 ar
36 4 16 ar
37 16 21 ar
38 17 19 1
39 18 22 1
40 6 19 ar
41 19 23 ar
42 3 20 ar
43 20 29 1
44 17 21 ar
45 14 22 1
46 22 30 1
47 20 23 ar
48 11 25 1
49 1 26 1
50 18 27 ar
51 26 27 1
52 15 28 1
@<TRIPOS>SUBSTRUCTURE
1	DL1501	1	GROUP	1 A	DL1
