# created with PyMOL 3.0.0
@<TRIPOS>MOLECULE
complex
43 45 1                 
SMALL
USER_CHARGES
@<TRIPOS>ATOM
1	  C1	31.037	8.761	-11.817	C.3	1	UNL501	0.000	
2	  C2	32.241	8.285	-10.993	C.3	1	UNL501	0.000	
3	  O3	31.871	7.312	-10.015	O.3	1	UNL501	0.000	
4	  C4	31.184	7.656	-8.859	C.2	1	UNL501	0.000	
5	  C5	30.917	8.991	-8.522	C.2	1	UNL501	0.000	
6	  C6	30.215	9.328	-7.342	C.2	1	UNL501	0.000	
7	  C7	29.775	8.291	-6.474	C.2	1	UNL501	0.000	
8	  C8	29.057	8.636	-5.301	C.2	1	UNL501	0.000	
9	  C9	28.828	9.982	-5.028	C.2	1	UNL501	0.000	
10	 N10	29.258	10.990	-5.820	N.2	1	UNL501	0.000	
11	 C11	29.927	10.663	-6.957	C.2	1	UNL501	0.000	
12	 O12	30.350	11.678	-7.791	O.3	1	UNL501	0.000	
13	 C13	30.332	13.038	-7.358	C.3	1	UNL501	0.000	
14	 C14	31.064	13.913	-8.404	C.3	1	UNL501	0.000	
15	 C16	30.373	13.963	-9.762	C.3	1	UNL501	0.000	
16	 C17	31.109	12.954	-10.623	C.3	1	UNL501	0.000	
17	 C18	32.448	12.719	-9.933	C.2	1	UNL501	0.000	
18	 O19	33.386	12.068	-10.383	O.2	1	UNL501	0.000	
19	 N20	32.370	13.351	-8.747	N.pl3	1	UNL501	0.000	
20	 C21	30.068	6.955	-6.810	C.2	1	UNL501	0.000	
21	 C22	30.762	6.627	-7.986	C.2	1	UNL501	0.000	
22	 C23	31.042	5.169	-8.293	C.2	1	UNL501	0.000	
23	 O24	31.961	4.809	-9.025	O.2	1	UNL501	0.000	
24	 N25	30.204	4.272	-7.760	N.pl3	1	UNL501	0.000	
25	HN20	33.121	13.330	-8.071	 H	1	UNL501	0.000	
26	HC14	31.174	14.922	-8.003	 H	1	UNL501	0.000	
27	HC21	29.740	6.188	-6.121	 H	1	UNL501	0.000	
28	 HC5	31.247	9.802	-9.153	 H	1	UNL501	0.000	
29	 HC8	28.690	7.868	-4.636	 H	1	UNL501	0.000	
30	 HC9	28.266	10.272	-4.153	 H	1	UNL501	0.000	
31	H131	30.840	13.125	-6.396	 H	1	UNL501	0.000	
32	H132	29.304	13.379	-7.224	 H	1	UNL501	0.000	
33	H161	30.531	14.949	-10.202	 H	1	UNL501	0.000	
34	H162	29.297	13.793	-9.716	 H	1	UNL501	0.000	
35	H171	30.577	12.003	-10.649	 H	1	UNL501	0.000	
36	H172	31.239	13.299	-11.648	 H	1	UNL501	0.000	
37	H251	30.282	3.300	-8.013	 H	1	UNL501	0.000	
38	H252	29.460	4.567	-7.147	 H	1	UNL501	0.000	
39	H1_1	31.366	9.408	-12.629	 H	1	UNL501	0.000	
40	H1_2	30.506	7.915	-12.256	 H	1	UNL501	0.000	
41	H1_3	30.325	9.321	-11.216	 H	1	UNL501	0.000	
42	H2_1	32.779	9.125	-10.553	 H	1	UNL501	0.000	
43	H2_2	32.955	7.803	-11.660	 H	1	UNL501	0.000	
@<TRIPOS>BOND
1 1 2 1
2 1 39 1
3 1 40 1
4 1 41 1
5 2 3 1
6 2 42 1
7 2 43 1
8 3 4 1
9 4 5 ar
10 4 21 ar
11 5 28 1
12 5 6 ar
13 6 11 ar
14 6 7 ar
15 7 8 ar
16 7 20 ar
17 8 29 1
18 8 9 ar
19 9 10 ar
20 9 30 1
21 10 11 ar
22 11 12 1
23 12 13 1
24 13 14 1
25 13 31 1
26 13 32 1
27 14 19 1
28 14 26 1
29 14 15 1
30 15 16 1
31 15 33 1
32 15 34 1
33 16 35 1
34 16 36 1
35 16 17 1
36 17 18 2
37 17 19 1
38 19 25 1
39 20 21 ar
40 20 27 1
41 21 22 1
42 22 23 2
43 22 24 1
44 24 37 1
45 24 38 1
@<TRIPOS>SUBSTRUCTURE
1	UNL501	1	GROUP	1 A	UNL
