complex
  PyMOL3.0          3D                             0

 43 45  0  0  0  0  0  0  0  0999 V2000
   31.0370    8.7610  -11.8170 C   0  0  0  0  0  0  0  0  0  0  0  0
   32.2410    8.2850  -10.9930 C   0  0  0  0  0  0  0  0  0  0  0  0
   31.8710    7.3120  -10.0150 O   0  0  0  0  0  0  0  0  0  0  0  0
   31.1840    7.6560   -8.8590 C   0  0  0  0  0  0  0  0  0  0  0  0
   30.9170    8.9910   -8.5220 C   0  0  0  0  0  0  0  0  0  0  0  0
   30.2150    9.3280   -7.3420 C   0  0  0  0  0  0  0  0  0  0  0  0
   29.7750    8.2910   -6.4740 C   0  0  0  0  0  0  0  0  0  0  0  0
   29.0570    8.6360   -5.3010 C   0  0  0  0  0  0  0  0  0  0  0  0
   28.8280    9.9820   -5.0280 C   0  0  0  0  0  0  0  0  0  0  0  0
   29.2580   10.9900   -5.8200 N   0  0  0  0  0  0  0  0  0  0  0  0
   29.9270   10.6630   -6.9570 C   0  0  0  0  0  0  0  0  0  0  0  0
   30.3500   11.6780   -7.7910 O   0  0  0  0  0  0  0  0  0  0  0  0
   30.3320   13.0380   -7.3580 C   0  0  0  0  0  0  0  0  0  0  0  0
   31.0640   13.9130   -8.4040 C   0  0  0  0  0  0  0  0  0  0  0  0
   30.3730   13.9630   -9.7620 C   0  0  0  0  0  0  0  0  0  0  0  0
   31.1090   12.9540  -10.6230 C   0  0  0  0  0  0  0  0  0  0  0  0
   32.4480   12.7190   -9.9330 C   0  0  0  0  0  0  0  0  0  0  0  0
   33.3860   12.0680  -10.3830 O   0  0  0  0  0  0  0  0  0  0  0  0
   32.3700   13.3510   -8.7470 N   0  0  0  0  0  0  0  0  0  0  0  0
   30.0680    6.9550   -6.8100 C   0  0  0  0  0  0  0  0  0  0  0  0
   30.7620    6.6270   -7.9860 C   0  0  0  0  0  0  0  0  0  0  0  0
   31.0420    5.1690   -8.2930 C   0  0  0  0  0  0  0  0  0  0  0  0
   31.9610    4.8090   -9.0250 O   0  0  0  0  0  0  0  0  0  0  0  0
   30.2040    4.2720   -7.7600 N   0  0  0  0  0  0  0  0  0  0  0  0
   33.1210   13.3300   -8.0710 H   0  0  0  0  0  0  0  0  0  0  0  0
   31.1740   14.9220   -8.0030 H   0  0  0  0  0  0  0  0  0  0  0  0
   29.7400    6.1880   -6.1210 H   0  0  0  0  0  0  0  0  0  0  0  0
   31.2470    9.8020   -9.1530 H   0  0  0  0  0  0  0  0  0  0  0  0
   28.6900    7.8680   -4.6360 H   0  0  0  0  0  0  0  0  0  0  0  0
   28.2660   10.2720   -4.1530 H   0  0  0  0  0  0  0  0  0  0  0  0
   30.8400   13.1250   -6.3960 H   0  0  0  0  0  0  0  0  0  0  0  0
   29.3040   13.3790   -7.2240 H   0  0  0  0  0  0  0  0  0  0  0  0
   30.5310   14.9490  -10.2020 H   0  0  0  0  0  0  0  0  0  0  0  0
   29.2970   13.7930   -9.7160 H   0  0  0  0  0  0  0  0  0  0  0  0
   30.5770   12.0030  -10.6490 H   0  0  0  0  0  0  0  0  0  0  0  0
   31.2390   13.2990  -11.6480 H   0  0  0  0  0  0  0  0  0  0  0  0
   30.2820    3.3000   -8.0130 H   0  0  0  0  0  0  0  0  0  0  0  0
   29.4600    4.5670   -7.1470 H   0  0  0  0  0  0  0  0  0  0  0  0
   31.3660    9.4080  -12.6290 H   0  0  0  0  0  0  0  0  0  0  0  0
   30.5060    7.9150  -12.2560 H   0  0  0  0  0  0  0  0  0  0  0  0
   30.3250    9.3210  -11.2160 H   0  0  0  0  0  0  0  0  0  0  0  0
   32.7790    9.1250  -10.5530 H   0  0  0  0  0  0  0  0  0  0  0  0
   32.9550    7.8030  -11.6600 H   0  0  0  0  0  0  0  0  0  0  0  0
  1  2  1  0  0  0  0
  1 39  1  0  0  0  0
  1 40  1  0  0  0  0
  1 41  1  0  0  0  0
  2  3  1  0  0  0  0
  2 42  1  0  0  0  0
  2 43  1  0  0  0  0
  3  4  1  0  0  0  0
  4  5  4  0  0  0  0
  4 21  4  0  0  0  0
  5 28  1  0  0  0  0
  5  6  4  0  0  0  0
  6 11  4  0  0  0  0
  6  7  4  0  0  0  0
  7  8  4  0  0  0  0
  7 20  4  0  0  0  0
  8 29  1  0  0  0  0
  8  9  4  0  0  0  0
  9 10  4  0  0  0  0
  9 30  1  0  0  0  0
 10 11  4  0  0  0  0
 11 12  1  0  0  0  0
 12 13  1  0  0  0  0
 13 14  1  0  0  0  0
 13 31  1  0  0  0  0
 13 32  1  0  0  0  0
 14 19  1  0  0  0  0
 14 26  1  0  0  0  0
 14 15  1  0  0  0  0
 15 16  1  0  0  0  0
 15 33  1  0  0  0  0
 15 34  1  0  0  0  0
 16 35  1  0  0  0  0
 16 36  1  0  0  0  0
 16 17  1  0  0  0  0
 17 18  2  0  0  0  0
 17 19  1  0  0  0  0
 19 25  1  0  0  0  0
 20 21  4  0  0  0  0
 20 27  1  0  0  0  0
 21 22  1  0  0  0  0
 22 23  2  0  0  0  0
 22 24  1  0  0  0  0
 24 37  1  0  0  0  0
 24 38  1  0  0  0  0
M  END
>  <pdb_header>
HEADER    TRANSFERASE                             2024-02-22
TITLE     Crystal structure of IRAK4 in complex with compound 6
EXPDTA    X-RAY DIFFRACTION
REMARK   2 RESOLUTION.    1.76 ANGSTROMS
REMARK   3  R VALUE : 0.190100
REMARK   3  FREE R VALUE : 0.212400
REMARK   4 8W3X COMPLIES WITH FORMAT V. 3.0, 1-DEC-2006
REMARK 200  TEMPERATURE           (KELVIN) : 173.00
REMARK 200  PH                             : NULL
REMARK 350 BIOMOLECULE: 1
REMARK 350 APPLY THE FOLLOWING TO CHAINS: A
REMARK 350   BIOMT1  1   1.000000 0.000000 0.000000   0.000000
REMARK 350   BIOMT2  1   0.000000 1.000000 0.000000   0.000000
REMARK 350   BIOMT3  1   0.000000 0.000000 1.000000   0.000000
REMARK 350 BIOMOLECULE: 2
REMARK 350 APPLY THE FOLLOWING TO CHAINS: B
REMARK 350   BIOMT1  1   1.000000 0.000000 0.000000   0.000000
REMARK 350   BIOMT2  1   0.000000 1.000000 0.000000   0.000000
REMARK 350   BIOMT3  1   0.000000 0.000000 1.000000   0.000000
REMARK 350 BIOMOLECULE: 3
REMARK 350 APPLY THE FOLLOWING TO CHAINS: C
REMARK 350   BIOMT1  1   1.000000 0.000000 0.000000   0.000000
REMARK 350   BIOMT2  1   0.000000 1.000000 0.000000   0.000000
REMARK 350   BIOMT3  1   0.000000 0.000000 1.000000   0.000000
REMARK 350 BIOMOLECULE: 4
REMARK 350 APPLY THE FOLLOWING TO CHAINS: D
REMARK 350   BIOMT1  1   1.000000 0.000000 0.000000   0.000000
REMARK 350   BIOMT2  1   0.000000 1.000000 0.000000   0.000000
REMARK 350   BIOMT3  1   0.000000 0.000000 1.000000   0.000000
REMARK 888
REMARK 888 WRITTEN BY MAESTRO (A PRODUCT OF SCHRODINGER, LLC)
CRYST1  142.610  140.110   87.840  90.00 124.67  90.00 C 2          16


$$$$
